MODEL 1
REMARK VINA RESULT:      -8.8      0.000      0.000
REMARK  5 active torsions:
REMARK  status: ('A' for Active; 'I' for Inactive)
REMARK    1  A    between atoms: O_1  and  C_9 
REMARK    2  A    between atoms: O_2  and  C_10 
REMARK    3  A    between atoms: O_3  and  C_15 
REMARK    4  A    between atoms: C_4  and  C_7 
REMARK    5  A    between atoms: C_5  and  C_11 
ROOT
HETATM    1  O   LIG     1       2.840  21.016  17.262  1.00  0.00    -0.353 OA
HETATM    2  C   LIG     1       3.277  21.707  18.426  1.00  0.00     0.210 C 
ENDROOT
BRANCH   1   3
HETATM    3  C   LIG     1       2.194  19.829  17.466  1.00  0.00     0.101 A 
HETATM    4  C   LIG     1       3.049  18.772  17.785  1.00  0.00     0.040 A 
HETATM    5  C   LIG     1       2.546  17.496  18.046  1.00  0.00     0.014 A 
HETATM    6  C   LIG     1       1.170  17.248  17.996  1.00  0.00    -0.033 A 
HETATM    7  C   LIG     1       0.306  18.315  17.712  1.00  0.00     0.050 A 
HETATM    8  C   LIG     1       0.815  19.594  17.443  1.00  0.00     0.099 A 
BRANCH   6   9
HETATM    9  C   LIG     1       0.609  15.920  18.295  1.00  0.00     0.012 C 
HETATM   10  C   LIG     1       0.709  15.324  19.493  1.00  0.00     0.012 C 
BRANCH  10  11
HETATM   11  C   LIG     1       0.159  13.999  19.820  1.00  0.00    -0.034 A 
HETATM   12  C   LIG     1      -0.360  13.213  18.781  1.00  0.00     0.048 A 
HETATM   13  C   LIG     1      -0.867  11.944  19.054  1.00  0.00     0.066 A 
HETATM   14  C   LIG     1      -0.860  11.436  20.346  1.00  0.00     0.036 A 
HETATM   15  C   LIG     1      -0.327  12.200  21.382  1.00  0.00     0.004 A 
HETATM   16  C   LIG     1       0.188  13.472  21.119  1.00  0.00     0.011 A 
BRANCH  13  17
HETATM   17  O   LIG     1      -1.388  11.159  18.068  1.00  0.00    -0.361 OA
HETATM   18  H   LIG     1      -0.686  10.579  17.728  1.00  0.00     0.217 HD
ENDBRANCH  13  17
ENDBRANCH  10  11
ENDBRANCH   6   9
BRANCH   8  19
HETATM   19  O   LIG     1      -0.067  20.607  17.186  1.00  0.00    -0.358 OA
HETATM   20  H   LIG     1      -0.945  20.233  17.009  1.00  0.00     0.217 HD
ENDBRANCH   8  19
ENDBRANCH   1   3
TORSDOF 5
ENDMDL
MODEL 2
REMARK VINA RESULT:      -8.7      2.004      7.746
REMARK  5 active torsions:
REMARK  status: ('A' for Active; 'I' for Inactive)
REMARK    1  A    between atoms: O_1  and  C_9 
REMARK    2  A    between atoms: O_2  and  C_10 
REMARK    3  A    between atoms: O_3  and  C_15 
REMARK    4  A    between atoms: C_4  and  C_7 
REMARK    5  A    between atoms: C_5  and  C_11 
ROOT
HETATM    1  O   LIG     1      -0.831  11.354  20.213  1.00  0.00    -0.353 OA
HETATM    2  C   LIG     1      -0.867  11.158  21.621  1.00  0.00     0.210 C 
ENDROOT
BRANCH   1   3
HETATM    3  C   LIG     1      -0.476  12.602  19.781  1.00  0.00     0.101 A 
HETATM    4  C   LIG     1       0.387  13.271  20.651  1.00  0.00     0.040 A 
HETATM    5  C   LIG     1       0.864  14.548  20.346  1.00  0.00     0.014 A 
HETATM    6  C   LIG     1       0.488  15.186  19.159  1.00  0.00    -0.033 A 
HETATM    7  C   LIG     1      -0.350  14.501  18.267  1.00  0.00     0.050 A 
HETATM    8  C   LIG     1      -0.833  13.221  18.579  1.00  0.00     0.099 A 
BRANCH   6   9
HETATM    9  C   LIG     1       0.996  16.519  18.798  1.00  0.00     0.012 C 
HETATM   10  C   LIG     1       2.171  17.006  19.226  1.00  0.00     0.012 C 
BRANCH  10  11
HETATM   11  C   LIG     1       2.705  18.334  18.882  1.00  0.00    -0.034 A 
HETATM   12  C   LIG     1       3.746  18.860  19.661  1.00  0.00     0.048 A 
HETATM   13  C   LIG     1       4.289  20.104  19.348  1.00  0.00     0.066 A 
HETATM   14  C   LIG     1       3.822  20.834  18.264  1.00  0.00     0.036 A 
HETATM   15  C   LIG     1       2.804  20.311  17.470  1.00  0.00     0.004 A 
HETATM   16  C   LIG     1       2.254  19.062  17.773  1.00  0.00     0.011 A 
BRANCH  13  17
HETATM   17  O   LIG     1       5.294  20.649  20.093  1.00  0.00    -0.361 OA
HETATM   18  H   LIG     1       5.962  19.964  20.262  1.00  0.00     0.217 HD
ENDBRANCH  13  17
ENDBRANCH  10  11
ENDBRANCH   6   9
BRANCH   8  19
HETATM   19  O   LIG     1      -1.635  12.586  17.671  1.00  0.00    -0.358 OA
HETATM   20  H   LIG     1      -2.557  12.852  17.814  1.00  0.00     0.217 HD
ENDBRANCH   8  19
ENDBRANCH   1   3
TORSDOF 5
ENDMDL
MODEL 3
REMARK VINA RESULT:      -8.7      1.816      2.941
REMARK  5 active torsions:
REMARK  status: ('A' for Active; 'I' for Inactive)
REMARK    1  A    between atoms: O_1  and  C_9 
REMARK    2  A    between atoms: O_2  and  C_10 
REMARK    3  A    between atoms: O_3  and  C_15 
REMARK    4  A    between atoms: C_4  and  C_7 
REMARK    5  A    between atoms: C_5  and  C_11 
ROOT
HETATM    1  O   LIG     1       4.203  22.318  17.979  1.00  0.00    -0.353 OA
HETATM    2  C   LIG     1       3.464  23.062  17.018  1.00  0.00     0.210 C 
ENDROOT
BRANCH   1   3
HETATM    3  C   LIG     1       3.752  21.055  18.248  1.00  0.00     0.101 A 
HETATM    4  C   LIG     1       2.724  20.635  17.402  1.00  0.00     0.040 A 
HETATM    5  C   LIG     1       2.166  19.361  17.528  1.00  0.00     0.014 A 
HETATM    6  C   LIG     1       2.628  18.474  18.507  1.00  0.00    -0.033 A 
HETATM    7  C   LIG     1       3.684  18.880  19.334  1.00  0.00     0.050 A 
HETATM    8  C   LIG     1       4.238  20.163  19.210  1.00  0.00     0.099 A 
BRANCH   6   9
HETATM    9  C   LIG     1       2.079  17.115  18.645  1.00  0.00     0.012 C 
HETATM   10  C   LIG     1       0.782  16.817  18.471  1.00  0.00     0.012 C 
BRANCH  10  11
HETATM   11  C   LIG     1       0.206  15.470  18.603  1.00  0.00    -0.034 A 
HETATM   12  C   LIG     1       0.610  14.670  19.683  1.00  0.00     0.048 A 
HETATM   13  C   LIG     1       0.065  13.398  19.849  1.00  0.00     0.066 A 
HETATM   14  C   LIG     1      -0.886  12.908  18.964  1.00  0.00     0.036 A 
HETATM   15  C   LIG     1      -1.310  13.703  17.902  1.00  0.00     0.004 A 
HETATM   16  C   LIG     1      -0.773  14.981  17.727  1.00  0.00     0.011 A 
BRANCH  13  17
HETATM   17  O   LIG     1       0.445  12.592  20.881  1.00  0.00    -0.361 OA
HETATM   18  H   LIG     1       0.559  13.138  21.677  1.00  0.00     0.217 HD
ENDBRANCH  13  17
ENDBRANCH  10  11
ENDBRANCH   6   9
BRANCH   8  19
HETATM   19  O   LIG     1       5.277  20.509  20.029  1.00  0.00    -0.358 OA
HETATM   20  H   LIG     1       5.896  21.076  19.541  1.00  0.00     0.217 HD
ENDBRANCH   8  19
ENDBRANCH   1   3
TORSDOF 5
ENDMDL
MODEL 4
REMARK VINA RESULT:      -8.7      1.736      2.503
REMARK  5 active torsions:
REMARK  status: ('A' for Active; 'I' for Inactive)
REMARK    1  A    between atoms: O_1  and  C_9 
REMARK    2  A    between atoms: O_2  and  C_10 
REMARK    3  A    between atoms: O_3  and  C_15 
REMARK    4  A    between atoms: C_4  and  C_7 
REMARK    5  A    between atoms: C_5  and  C_11 
ROOT
HETATM    1  O   LIG     1       5.051  21.693  19.153  1.00  0.00    -0.353 OA
HETATM    2  C   LIG     1       6.369  21.611  18.625  1.00  0.00     0.210 C 
ENDROOT
BRANCH   1   3
HETATM    3  C   LIG     1       4.181  20.708  18.776  1.00  0.00     0.101 A 
HETATM    4  C   LIG     1       4.329  19.523  19.499  1.00  0.00     0.040 A 
HETATM    5  C   LIG     1       3.502  18.424  19.254  1.00  0.00     0.014 A 
HETATM    6  C   LIG     1       2.503  18.489  18.277  1.00  0.00    -0.033 A 
HETATM    7  C   LIG     1       2.328  19.689  17.575  1.00  0.00     0.050 A 
HETATM    8  C   LIG     1       3.165  20.788  17.818  1.00  0.00     0.099 A 
BRANCH   6   9
HETATM    9  C   LIG     1       1.598  17.357  18.016  1.00  0.00     0.012 C 
HETATM   10  C   LIG     1       1.234  16.466  18.951  1.00  0.00     0.012 C 
BRANCH  10  11
HETATM   11  C   LIG     1       0.332  15.327  18.721  1.00  0.00    -0.034 A 
HETATM   12  C   LIG     1      -0.457  15.321  17.560  1.00  0.00     0.048 A 
HETATM   13  C   LIG     1      -1.304  14.246  17.301  1.00  0.00     0.066 A 
HETATM   14  C   LIG     1      -1.375  13.167  18.171  1.00  0.00     0.036 A 
HETATM   15  C   LIG     1      -0.579  13.153  19.314  1.00  0.00     0.004 A 
HETATM   16  C   LIG     1       0.277  14.224  19.583  1.00  0.00     0.011 A 
BRANCH  13  17
HETATM   17  O   LIG     1      -2.092  14.215  16.188  1.00  0.00    -0.361 OA
HETATM   18  H   LIG     1      -2.896  13.709  16.389  1.00  0.00     0.217 HD
ENDBRANCH  13  17
ENDBRANCH  10  11
ENDBRANCH   6   9
BRANCH   8  19
HETATM   19  O   LIG     1       2.947  21.943  17.119  1.00  0.00    -0.358 OA
HETATM   20  H   LIG     1       3.107  21.784  16.175  1.00  0.00     0.217 HD
ENDBRANCH   8  19
ENDBRANCH   1   3
TORSDOF 5
ENDMDL
MODEL 5
REMARK VINA RESULT:      -8.7      1.992      2.836
REMARK  5 active torsions:
REMARK  status: ('A' for Active; 'I' for Inactive)
REMARK    1  A    between atoms: O_1  and  C_9 
REMARK    2  A    between atoms: O_2  and  C_10 
REMARK    3  A    between atoms: O_3  and  C_15 
REMARK    4  A    between atoms: C_4  and  C_7 
REMARK    5  A    between atoms: C_5  and  C_11 
ROOT
HETATM    1  O   LIG     1       4.368  21.784  18.330  1.00  0.00    -0.353 OA
HETATM    2  C   LIG     1       3.835  22.875  19.069  1.00  0.00     0.210 C 
ENDROOT
BRANCH   1   3
HETATM    3  C   LIG     1       3.755  20.573  18.506  1.00  0.00     0.101 A 
HETATM    4  C   LIG     1       2.781  20.294  17.545  1.00  0.00     0.040 A 
HETATM    5  C   LIG     1       2.078  19.088  17.567  1.00  0.00     0.014 A 
HETATM    6  C   LIG     1       2.336  18.130  18.553  1.00  0.00    -0.033 A 
HETATM    7  C   LIG     1       3.339  18.392  19.497  1.00  0.00     0.050 A 
HETATM    8  C   LIG     1       4.039  19.607  19.477  1.00  0.00     0.099 A 
BRANCH   6   9
HETATM    9  C   LIG     1       1.630  16.838  18.585  1.00  0.00     0.012 C 
HETATM   10  C   LIG     1       0.540  16.569  17.851  1.00  0.00     0.012 C 
BRANCH  10  11
HETATM   11  C   LIG     1      -0.185  15.289  17.862  1.00  0.00    -0.034 A 
HETATM   12  C   LIG     1      -0.983  14.961  16.756  1.00  0.00     0.048 A 
HETATM   13  C   LIG     1      -1.665  13.746  16.725  1.00  0.00     0.066 A 
HETATM   14  C   LIG     1      -1.559  12.842  17.773  1.00  0.00     0.036 A 
HETATM   15  C   LIG     1      -0.751  13.148  18.866  1.00  0.00     0.004 A 
HETATM   16  C   LIG     1      -0.061  14.362  18.906  1.00  0.00     0.011 A 
BRANCH  13  17
HETATM   17  O   LIG     1      -2.458  13.403  15.669  1.00  0.00    -0.361 OA
HETATM   18  H   LIG     1      -1.911  12.956  15.002  1.00  0.00     0.217 HD
ENDBRANCH  13  17
ENDBRANCH  10  11
ENDBRANCH   6   9
BRANCH   8  19
HETATM   19  O   LIG     1       5.019  19.813  20.408  1.00  0.00    -0.358 OA
HETATM   20  H   LIG     1       4.618  19.876  21.290  1.00  0.00     0.217 HD
ENDBRANCH   8  19
ENDBRANCH   1   3
TORSDOF 5
ENDMDL
MODEL 6
REMARK VINA RESULT:      -8.7      1.718      2.709
REMARK  5 active torsions:
REMARK  status: ('A' for Active; 'I' for Inactive)
REMARK    1  A    between atoms: O_1  and  C_9 
REMARK    2  A    between atoms: O_2  and  C_10 
REMARK    3  A    between atoms: O_3  and  C_15 
REMARK    4  A    between atoms: C_4  and  C_7 
REMARK    5  A    between atoms: C_5  and  C_11 
ROOT
HETATM    1  O   LIG     1       5.155  21.588  19.540  1.00  0.00    -0.353 OA
HETATM    2  C   LIG     1       6.461  21.604  18.978  1.00  0.00     0.210 C 
ENDROOT
BRANCH   1   3
HETATM    3  C   LIG     1       4.314  20.604  19.097  1.00  0.00     0.101 A 
HETATM    4  C   LIG     1       4.381  19.430  19.848  1.00  0.00     0.040 A 
HETATM    5  C   LIG     1       3.569  18.335  19.543  1.00  0.00     0.014 A 
HETATM    6  C   LIG     1       2.667  18.393  18.475  1.00  0.00    -0.033 A 
HETATM    7  C   LIG     1       2.571  19.584  17.742  1.00  0.00     0.050 A 
HETATM    8  C   LIG     1       3.393  20.679  18.047  1.00  0.00     0.099 A 
BRANCH   6   9
HETATM    9  C   LIG     1       1.778  17.266  18.147  1.00  0.00     0.012 C 
HETATM   10  C   LIG     1       1.298  16.409  19.060  1.00  0.00     0.012 C 
BRANCH  10  11
HETATM   11  C   LIG     1       0.409  15.275  18.762  1.00  0.00    -0.034 A 
HETATM   12  C   LIG     1       0.372  14.198  19.661  1.00  0.00     0.048 A 
HETATM   13  C   LIG     1      -0.476  13.119  19.420  1.00  0.00     0.066 A 
HETATM   14  C   LIG     1      -1.299  13.094  18.302  1.00  0.00     0.036 A 
HETATM   15  C   LIG     1      -1.286  14.169  17.415  1.00  0.00     0.004 A 
HETATM   16  C   LIG     1      -0.442  15.257  17.649  1.00  0.00     0.011 A 
BRANCH  13  17
HETATM   17  O   LIG     1      -0.527  12.052  20.268  1.00  0.00    -0.361 OA
HETATM   18  H   LIG     1      -0.450  11.236  19.747  1.00  0.00     0.217 HD
ENDBRANCH  13  17
ENDBRANCH  10  11
ENDBRANCH   6   9
BRANCH   8  19
HETATM   19  O   LIG     1       3.253  21.826  17.314  1.00  0.00    -0.358 OA
HETATM   20  H   LIG     1       3.745  21.738  16.481  1.00  0.00     0.217 HD
ENDBRANCH   8  19
ENDBRANCH   1   3
TORSDOF 5
ENDMDL
MODEL 7
REMARK VINA RESULT:      -8.4      1.353      7.657
REMARK  5 active torsions:
REMARK  status: ('A' for Active; 'I' for Inactive)
REMARK    1  A    between atoms: O_1  and  C_9 
REMARK    2  A    between atoms: O_2  and  C_10 
REMARK    3  A    between atoms: O_3  and  C_15 
REMARK    4  A    between atoms: C_4  and  C_7 
REMARK    5  A    between atoms: C_5  and  C_11 
ROOT
HETATM    1  O   LIG     1      -0.841  11.682  20.105  1.00  0.00    -0.353 OA
HETATM    2  C   LIG     1      -0.800  11.175  21.433  1.00  0.00     0.210 C 
ENDROOT
BRANCH   1   3
HETATM    3  C   LIG     1      -0.249  12.898  19.899  1.00  0.00     0.101 A 
HETATM    4  C   LIG     1       0.765  13.190  20.813  1.00  0.00     0.040 A 
HETATM    5  C   LIG     1       1.486  14.383  20.728  1.00  0.00     0.014 A 
HETATM    6  C   LIG     1       1.208  15.313  19.721  1.00  0.00    -0.033 A 
HETATM    7  C   LIG     1       0.215  15.006  18.780  1.00  0.00     0.050 A 
HETATM    8  C   LIG     1      -0.512  13.811  18.872  1.00  0.00     0.099 A 
BRANCH   6   9
HETATM    9  C   LIG     1       1.970  16.566  19.589  1.00  0.00     0.012 C 
HETATM   10  C   LIG     1       1.950  17.334  18.489  1.00  0.00     0.012 C 
BRANCH  10  11
HETATM   11  C   LIG     1       2.700  18.590  18.328  1.00  0.00    -0.034 A 
HETATM   12  C   LIG     1       2.032  19.708  17.807  1.00  0.00     0.048 A 
HETATM   13  C   LIG     1       2.707  20.918  17.664  1.00  0.00     0.066 A 
HETATM   14  C   LIG     1       4.038  21.042  18.040  1.00  0.00     0.036 A 
HETATM   15  C   LIG     1       4.705  19.943  18.578  1.00  0.00     0.004 A 
HETATM   16  C   LIG     1       4.036  18.725  18.730  1.00  0.00     0.011 A 
BRANCH  13  17
HETATM   17  O   LIG     1       2.089  22.021  17.151  1.00  0.00    -0.361 OA
HETATM   18  H   LIG     1       1.504  22.394  17.831  1.00  0.00     0.217 HD
ENDBRANCH  13  17
ENDBRANCH  10  11
ENDBRANCH   6   9
BRANCH   8  19
HETATM   19  O   LIG     1      -1.461  13.547  17.923  1.00  0.00    -0.358 OA
HETATM   20  H   LIG     1      -1.139  13.840  17.055  1.00  0.00     0.217 HD
ENDBRANCH   8  19
ENDBRANCH   1   3
TORSDOF 5
ENDMDL
MODEL 8
REMARK VINA RESULT:      -8.2      2.073      7.867
REMARK  5 active torsions:
REMARK  status: ('A' for Active; 'I' for Inactive)
REMARK    1  A    between atoms: O_1  and  C_9 
REMARK    2  A    between atoms: O_2  and  C_10 
REMARK    3  A    between atoms: O_3  and  C_15 
REMARK    4  A    between atoms: C_4  and  C_7 
REMARK    5  A    between atoms: C_5  and  C_11 
ROOT
HETATM    1  O   LIG     1      -1.598  13.467  17.818  1.00  0.00    -0.353 OA
HETATM    2  C   LIG     1      -2.009  13.376  16.460  1.00  0.00     0.210 C 
ENDROOT
BRANCH   1   3
HETATM    3  C   LIG     1      -0.656  14.416  18.107  1.00  0.00     0.101 A 
HETATM    4  C   LIG     1      -0.633  15.476  17.200  1.00  0.00     0.040 A 
HETATM    5  C   LIG     1       0.255  16.542  17.364  1.00  0.00     0.014 A 
HETATM    6  C   LIG     1       1.141  16.571  18.446  1.00  0.00    -0.033 A 
HETATM    7  C   LIG     1       1.094  15.525  19.379  1.00  0.00     0.050 A 
HETATM    8  C   LIG     1       0.207  14.453  19.207  1.00  0.00     0.099 A 
BRANCH   6   9
HETATM    9  C   LIG     1       2.068  17.694  18.661  1.00  0.00     0.012 C 
HETATM   10  C   LIG     1       2.224  18.705  17.793  1.00  0.00     0.012 C 
BRANCH  10  11
HETATM   11  C   LIG     1       3.142  19.839  17.980  1.00  0.00    -0.034 A 
HETATM   12  C   LIG     1       2.739  21.108  17.537  1.00  0.00     0.048 A 
HETATM   13  C   LIG     1       3.575  22.207  17.721  1.00  0.00     0.066 A 
HETATM   14  C   LIG     1       4.806  22.071  18.349  1.00  0.00     0.036 A 
HETATM   15  C   LIG     1       5.206  20.819  18.813  1.00  0.00     0.004 A 
HETATM   16  C   LIG     1       4.374  19.710  18.637  1.00  0.00     0.011 A 
BRANCH  13  17
HETATM   17  O   LIG     1       3.218  23.451  17.292  1.00  0.00    -0.361 OA
HETATM   18  H   LIG     1       2.282  23.434  17.031  1.00  0.00     0.217 HD
ENDBRANCH  13  17
ENDBRANCH  10  11
ENDBRANCH   6   9
BRANCH   8  19
HETATM   19  O   LIG     1       0.186  13.463  20.151  1.00  0.00    -0.358 OA
HETATM   20  H   LIG     1       1.097  13.203  20.366  1.00  0.00     0.217 HD
ENDBRANCH   8  19
ENDBRANCH   1   3
TORSDOF 5
ENDMDL
MODEL 9
REMARK VINA RESULT:      -8.0      2.190      7.810
REMARK  5 active torsions:
REMARK  status: ('A' for Active; 'I' for Inactive)
REMARK    1  A    between atoms: O_1  and  C_9 
REMARK    2  A    between atoms: O_2  and  C_10 
REMARK    3  A    between atoms: O_3  and  C_15 
REMARK    4  A    between atoms: C_4  and  C_7 
REMARK    5  A    between atoms: C_5  and  C_11 
ROOT
HETATM    1  O   LIG     1      -1.688  14.034  17.932  1.00  0.00    -0.353 OA
HETATM    2  C   LIG     1      -1.065  13.095  18.799  1.00  0.00     0.210 C 
ENDROOT
BRANCH   1   3
HETATM    3  C   LIG     1      -1.101  15.267  17.848  1.00  0.00     0.101 A 
HETATM    4  C   LIG     1       0.199  15.305  18.357  1.00  0.00     0.040 A 
HETATM    5  C   LIG     1       0.947  16.483  18.326  1.00  0.00     0.014 A 
HETATM    6  C   LIG     1       0.411  17.654  17.781  1.00  0.00    -0.033 A 
HETATM    7  C   LIG     1      -0.881  17.610  17.236  1.00  0.00     0.050 A 
HETATM    8  C   LIG     1      -1.633  16.427  17.275  1.00  0.00     0.099 A 
BRANCH   6   9
HETATM    9  C   LIG     1       1.186  18.904  17.709  1.00  0.00     0.012 C 
HETATM   10  C   LIG     1       2.451  19.019  18.140  1.00  0.00     0.012 C 
BRANCH  10  11
HETATM   11  C   LIG     1       3.250  20.253  18.080  1.00  0.00    -0.034 A 
HETATM   12  C   LIG     1       4.550  20.236  18.608  1.00  0.00     0.048 A 
HETATM   13  C   LIG     1       5.341  21.381  18.547  1.00  0.00     0.066 A 
HETATM   14  C   LIG     1       4.866  22.546  17.959  1.00  0.00     0.036 A 
HETATM   15  C   LIG     1       3.585  22.566  17.412  1.00  0.00     0.004 A 
HETATM   16  C   LIG     1       2.784  21.422  17.465  1.00  0.00     0.011 A 
BRANCH  13  17
HETATM   17  O   LIG     1       6.604  21.401  19.061  1.00  0.00    -0.361 OA
HETATM   18  H   LIG     1       7.028  20.546  18.879  1.00  0.00     0.217 HD
ENDBRANCH  13  17
ENDBRANCH  10  11
ENDBRANCH   6   9
BRANCH   8  19
HETATM   19  O   LIG     1      -2.882  16.428  16.718  1.00  0.00    -0.358 OA
HETATM   20  H   LIG     1      -2.832  16.781  15.815  1.00  0.00     0.217 HD
ENDBRANCH   8  19
ENDBRANCH   1   3
TORSDOF 5
ENDMDL
