MODEL 1
REMARK VINA RESULT:      -9.0      0.000      0.000
REMARK  5 active torsions:
REMARK  status: ('A' for Active; 'I' for Inactive)
REMARK    1  A    between atoms: O_1  and  C_10 
REMARK    2  A    between atoms: O_2  and  C_11 
REMARK    3  A    between atoms: O_3  and  C_17 
REMARK    4  A    between atoms: C_4  and  C_6 
REMARK    5  A    between atoms: C_5  and  C_7 
ROOT
HETATM    1  O   LIG     1       0.098  19.782  16.900  1.00  0.00    -0.361 OA
HETATM    2  H   LIG     1       0.251  19.831  15.942  1.00  0.00     0.217 HD
ENDROOT
BRANCH   1   3
HETATM    3  C   LIG     1       1.079  19.012  17.455  1.00  0.00     0.069 A 
HETATM    4  C   LIG     1       0.693  17.845  18.112  1.00  0.00     0.048 A 
HETATM    5  C   LIG     1       1.657  17.011  18.694  1.00  0.00    -0.031 A 
HETATM    6  C   LIG     1       3.007  17.388  18.626  1.00  0.00     0.048 A 
HETATM    7  C   LIG     1       3.372  18.560  17.965  1.00  0.00     0.069 A 
HETATM    8  C   LIG     1       2.416  19.377  17.373  1.00  0.00     0.073 A 
BRANCH   5   9
HETATM    9  C   LIG     1       1.298  15.784  19.421  1.00  0.00     0.012 C 
HETATM   10  C   LIG     1       0.195  15.061  19.171  1.00  0.00     0.012 C 
BRANCH  10  11
HETATM   11  C   LIG     1      -0.154  13.820  19.879  1.00  0.00    -0.036 A 
HETATM   12  C   LIG     1      -0.032  13.782  21.274  1.00  0.00     0.014 A 
HETATM   13  C   LIG     1      -0.331  12.616  21.983  1.00  0.00     0.037 A 
HETATM   14  C   LIG     1      -0.740  11.479  21.298  1.00  0.00     0.065 A 
HETATM   15  C   LIG     1      -0.851  11.487  19.913  1.00  0.00     0.037 A 
HETATM   16  C   LIG     1      -0.553  12.656  19.205  1.00  0.00     0.014 A 
BRANCH  14  17
HETATM   17  O   LIG     1      -1.021  10.363  22.028  1.00  0.00    -0.361 OA
HETATM   18  H   LIG     1      -1.981  10.315  22.164  1.00  0.00     0.217 HD
ENDBRANCH  14  17
ENDBRANCH  10  11
ENDBRANCH   5   9
BRANCH   7  19
HETATM   19  O   LIG     1       4.677  18.946  17.875  1.00  0.00    -0.361 OA
HETATM   20  H   LIG     1       5.223  18.164  17.688  1.00  0.00     0.217 HD
ENDBRANCH   7  19
ENDBRANCH   1   3
TORSDOF 5
ENDMDL
MODEL 2
REMARK VINA RESULT:      -9.0      0.079      2.006
REMARK  5 active torsions:
REMARK  status: ('A' for Active; 'I' for Inactive)
REMARK    1  A    between atoms: O_1  and  C_10 
REMARK    2  A    between atoms: O_2  and  C_11 
REMARK    3  A    between atoms: O_3  and  C_17 
REMARK    4  A    between atoms: C_4  and  C_6 
REMARK    5  A    between atoms: C_5  and  C_7 
ROOT
HETATM    1  O   LIG     1       4.737  18.858  17.771  1.00  0.00    -0.361 OA
HETATM    2  H   LIG     1       5.238  18.041  17.612  1.00  0.00     0.217 HD
ENDROOT
BRANCH   1   3
HETATM    3  C   LIG     1       3.416  18.537  17.898  1.00  0.00     0.069 A 
HETATM    4  C   LIG     1       3.095  17.382  18.608  1.00  0.00     0.048 A 
HETATM    5  C   LIG     1       1.756  17.007  18.777  1.00  0.00    -0.031 A 
HETATM    6  C   LIG     1       0.753  17.799  18.197  1.00  0.00     0.048 A 
HETATM    7  C   LIG     1       1.095  18.951  17.490  1.00  0.00     0.069 A 
HETATM    8  C   LIG     1       2.424  19.331  17.337  1.00  0.00     0.073 A 
BRANCH   5   9
HETATM    9  C   LIG     1       1.367  15.783  19.493  1.00  0.00     0.012 C 
HETATM   10  C   LIG     1       0.270  15.064  19.207  1.00  0.00     0.012 C 
BRANCH  10  11
HETATM   11  C   LIG     1      -0.109  13.826  19.905  1.00  0.00    -0.036 A 
HETATM   12  C   LIG     1       0.000  13.777  21.301  1.00  0.00     0.014 A 
HETATM   13  C   LIG     1      -0.326  12.613  22.001  1.00  0.00     0.037 A 
HETATM   14  C   LIG     1      -0.750  11.488  21.306  1.00  0.00     0.065 A 
HETATM   15  C   LIG     1      -0.849  11.506  19.919  1.00  0.00     0.037 A 
HETATM   16  C   LIG     1      -0.523  12.673  19.221  1.00  0.00     0.014 A 
BRANCH  14  17
HETATM   17  O   LIG     1      -1.058  10.373  22.027  1.00  0.00    -0.361 OA
HETATM   18  H   LIG     1      -1.743   9.876  21.550  1.00  0.00     0.217 HD
ENDBRANCH  14  17
ENDBRANCH  10  11
ENDBRANCH   5   9
BRANCH   7  19
HETATM   19  O   LIG     1       0.143  19.745  16.923  1.00  0.00    -0.361 OA
HETATM   20  H   LIG     1      -0.614  19.191  16.665  1.00  0.00     0.217 HD
ENDBRANCH   7  19
ENDBRANCH   1   3
TORSDOF 5
ENDMDL
MODEL 3
REMARK VINA RESULT:      -8.7      2.035      7.412
REMARK  5 active torsions:
REMARK  status: ('A' for Active; 'I' for Inactive)
REMARK    1  A    between atoms: O_1  and  C_10 
REMARK    2  A    between atoms: O_2  and  C_11 
REMARK    3  A    between atoms: O_3  and  C_17 
REMARK    4  A    between atoms: C_4  and  C_6 
REMARK    5  A    between atoms: C_5  and  C_7 
ROOT
HETATM    1  O   LIG     1      -0.232  11.990  20.952  1.00  0.00    -0.361 OA
HETATM    2  H   LIG     1       0.721  11.862  21.092  1.00  0.00     0.217 HD
ENDROOT
BRANCH   1   3
HETATM    3  C   LIG     1      -0.405  12.771  19.847  1.00  0.00     0.069 A 
HETATM    4  C   LIG     1       0.202  14.026  19.838  1.00  0.00     0.048 A 
HETATM    5  C   LIG     1       0.065  14.868  18.726  1.00  0.00    -0.031 A 
HETATM    6  C   LIG     1      -0.714  14.436  17.643  1.00  0.00     0.048 A 
HETATM    7  C   LIG     1      -1.314  13.178  17.671  1.00  0.00     0.069 A 
HETATM    8  C   LIG     1      -1.164  12.337  18.768  1.00  0.00     0.073 A 
BRANCH   5   9
HETATM    9  C   LIG     1       0.663  16.210  18.680  1.00  0.00     0.012 C 
HETATM   10  C   LIG     1       1.945  16.470  18.983  1.00  0.00     0.012 C 
BRANCH  10  11
HETATM   11  C   LIG     1       2.554  17.807  18.914  1.00  0.00    -0.036 A 
HETATM   12  C   LIG     1       2.208  18.652  17.850  1.00  0.00     0.014 A 
HETATM   13  C   LIG     1       2.781  19.921  17.734  1.00  0.00     0.037 A 
HETATM   14  C   LIG     1       3.711  20.345  18.673  1.00  0.00     0.065 A 
HETATM   15  C   LIG     1       4.084  19.518  19.727  1.00  0.00     0.037 A 
HETATM   16  C   LIG     1       3.508  18.249  19.842  1.00  0.00     0.014 A 
BRANCH  14  17
HETATM   17  O   LIG     1       4.246  21.590  18.523  1.00  0.00    -0.361 OA
HETATM   18  H   LIG     1       5.102  21.616  18.979  1.00  0.00     0.217 HD
ENDBRANCH  14  17
ENDBRANCH  10  11
ENDBRANCH   5   9
BRANCH   7  19
HETATM   19  O   LIG     1      -2.069  12.728  16.629  1.00  0.00    -0.361 OA
HETATM   20  H   LIG     1      -1.576  12.866  15.803  1.00  0.00     0.217 HD
ENDBRANCH   7  19
ENDBRANCH   1   3
TORSDOF 5
ENDMDL
MODEL 4
REMARK VINA RESULT:      -8.6      2.331      7.316
REMARK  5 active torsions:
REMARK  status: ('A' for Active; 'I' for Inactive)
REMARK    1  A    between atoms: O_1  and  C_10 
REMARK    2  A    between atoms: O_2  and  C_11 
REMARK    3  A    between atoms: O_3  and  C_17 
REMARK    4  A    between atoms: C_4  and  C_6 
REMARK    5  A    between atoms: C_5  and  C_7 
ROOT
HETATM    1  O   LIG     1      -2.203  13.371  16.017  1.00  0.00    -0.361 OA
HETATM    2  H   LIG     1      -2.981  13.950  15.957  1.00  0.00     0.217 HD
ENDROOT
BRANCH   1   3
HETATM    3  C   LIG     1      -1.471  13.741  17.108  1.00  0.00     0.069 A 
HETATM    4  C   LIG     1      -0.882  15.004  17.095  1.00  0.00     0.048 A 
HETATM    5  C   LIG     1      -0.126  15.441  18.191  1.00  0.00    -0.031 A 
HETATM    6  C   LIG     1       0.048  14.576  19.281  1.00  0.00     0.048 A 
HETATM    7  C   LIG     1      -0.549  13.316  19.274  1.00  0.00     0.069 A 
HETATM    8  C   LIG     1      -1.313  12.890  18.194  1.00  0.00     0.073 A 
BRANCH   5   9
HETATM    9  C   LIG     1       0.537  16.754  18.213  1.00  0.00     0.012 C 
HETATM   10  C   LIG     1       1.859  16.922  18.380  1.00  0.00     0.012 C 
BRANCH  10  11
HETATM   11  C   LIG     1       2.529  18.231  18.379  1.00  0.00    -0.036 A 
HETATM   12  C   LIG     1       2.027  19.246  17.554  1.00  0.00     0.014 A 
HETATM   13  C   LIG     1       2.648  20.496  17.504  1.00  0.00     0.037 A 
HETATM   14  C   LIG     1       3.782  20.732  18.269  1.00  0.00     0.065 A 
HETATM   15  C   LIG     1       4.310  19.736  19.081  1.00  0.00     0.037 A 
HETATM   16  C   LIG     1       3.686  18.485  19.131  1.00  0.00     0.014 A 
BRANCH  14  17
HETATM   17  O   LIG     1       4.357  21.966  18.191  1.00  0.00    -0.361 OA
HETATM   18  H   LIG     1       3.719  22.626  18.508  1.00  0.00     0.217 HD
ENDBRANCH  14  17
ENDBRANCH  10  11
ENDBRANCH   5   9
BRANCH   7  19
HETATM   19  O   LIG     1      -0.405  12.457  20.324  1.00  0.00    -0.361 OA
HETATM   20  H   LIG     1       0.481  12.059  20.283  1.00  0.00     0.217 HD
ENDBRANCH   7  19
ENDBRANCH   1   3
TORSDOF 5
ENDMDL
MODEL 5
REMARK VINA RESULT:      -8.4      2.777      3.643
REMARK  5 active torsions:
REMARK  status: ('A' for Active; 'I' for Inactive)
REMARK    1  A    between atoms: O_1  and  C_10 
REMARK    2  A    between atoms: O_2  and  C_11 
REMARK    3  A    between atoms: O_3  and  C_17 
REMARK    4  A    between atoms: C_4  and  C_6 
REMARK    5  A    between atoms: C_5  and  C_7 
ROOT
HETATM    1  O   LIG     1       3.932  21.581  18.238  1.00  0.00    -0.361 OA
HETATM    2  H   LIG     1       3.842  21.526  17.272  1.00  0.00     0.217 HD
ENDROOT
BRANCH   1   3
HETATM    3  C   LIG     1       3.768  20.331  18.759  1.00  0.00     0.069 A 
HETATM    4  C   LIG     1       2.911  19.458  18.091  1.00  0.00     0.048 A 
HETATM    5  C   LIG     1       2.709  18.158  18.576  1.00  0.00    -0.031 A 
HETATM    6  C   LIG     1       3.361  17.768  19.755  1.00  0.00     0.048 A 
HETATM    7  C   LIG     1       4.213  18.656  20.409  1.00  0.00     0.069 A 
HETATM    8  C   LIG     1       4.426  19.939  19.918  1.00  0.00     0.073 A 
BRANCH   5   9
HETATM    9  C   LIG     1       1.795  17.210  17.922  1.00  0.00     0.012 C 
HETATM   10  C   LIG     1       0.875  16.483  18.578  1.00  0.00     0.012 C 
BRANCH  10  11
HETATM   11  C   LIG     1      -0.057  15.552  17.925  1.00  0.00    -0.036 A 
HETATM   12  C   LIG     1      -0.354  14.338  18.558  1.00  0.00     0.014 A 
HETATM   13  C   LIG     1      -1.215  13.415  17.961  1.00  0.00     0.037 A 
HETATM   14  C   LIG     1      -1.774  13.697  16.722  1.00  0.00     0.065 A 
HETATM   15  C   LIG     1      -1.480  14.886  16.065  1.00  0.00     0.037 A 
HETATM   16  C   LIG     1      -0.618  15.810  16.665  1.00  0.00     0.014 A 
BRANCH  14  17
HETATM   17  O   LIG     1      -2.609  12.769  16.174  1.00  0.00    -0.361 OA
HETATM   18  H   LIG     1      -3.410  12.713  16.720  1.00  0.00     0.217 HD
ENDBRANCH  14  17
ENDBRANCH  10  11
ENDBRANCH   5   9
BRANCH   7  19
HETATM   19  O   LIG     1       4.867  18.301  21.552  1.00  0.00    -0.361 OA
HETATM   20  H   LIG     1       4.332  18.575  22.316  1.00  0.00     0.217 HD
ENDBRANCH   7  19
ENDBRANCH   1   3
TORSDOF 5
ENDMDL
MODEL 6
REMARK VINA RESULT:      -8.3      2.774      3.846
REMARK  5 active torsions:
REMARK  status: ('A' for Active; 'I' for Inactive)
REMARK    1  A    between atoms: O_1  and  C_10 
REMARK    2  A    between atoms: O_2  and  C_11 
REMARK    3  A    between atoms: O_3  and  C_17 
REMARK    4  A    between atoms: C_4  and  C_6 
REMARK    5  A    between atoms: C_5  and  C_7 
ROOT
HETATM    1  O   LIG     1       4.720  18.225  21.489  1.00  0.00    -0.361 OA
HETATM    2  H   LIG     1       4.339  18.685  22.255  1.00  0.00     0.217 HD
ENDROOT
BRANCH   1   3
HETATM    3  C   LIG     1       4.079  18.657  20.364  1.00  0.00     0.069 A 
HETATM    4  C   LIG     1       3.146  17.802  19.780  1.00  0.00     0.048 A 
HETATM    5  C   LIG     1       2.453  18.196  18.628  1.00  0.00    -0.031 A 
HETATM    6  C   LIG     1       2.735  19.448  18.063  1.00  0.00     0.048 A 
HETATM    7  C   LIG     1       3.672  20.289  18.662  1.00  0.00     0.069 A 
HETATM    8  C   LIG     1       4.348  19.904  19.814  1.00  0.00     0.073 A 
BRANCH   5   9
HETATM    9  C   LIG     1       1.479  17.319  17.959  1.00  0.00     0.012 C 
HETATM   10  C   LIG     1       0.966  16.209  18.514  1.00  0.00     0.012 C 
BRANCH  10  11
HETATM   11  C   LIG     1      -0.026  15.344  17.858  1.00  0.00    -0.036 A 
HETATM   12  C   LIG     1      -0.435  14.172  18.508  1.00  0.00     0.014 A 
HETATM   13  C   LIG     1      -1.357  13.310  17.910  1.00  0.00     0.037 A 
HETATM   14  C   LIG     1      -1.864  13.610  16.653  1.00  0.00     0.065 A 
HETATM   15  C   LIG     1      -1.460  14.758  15.980  1.00  0.00     0.037 A 
HETATM   16  C   LIG     1      -0.538  15.620  16.581  1.00  0.00     0.014 A 
BRANCH  14  17
HETATM   17  O   LIG     1      -2.761  12.743  16.104  1.00  0.00    -0.361 OA
HETATM   18  H   LIG     1      -2.858  11.981  16.698  1.00  0.00     0.217 HD
ENDBRANCH  14  17
ENDBRANCH  10  11
ENDBRANCH   5   9
BRANCH   7  19
HETATM   19  O   LIG     1       3.961  21.516  18.141  1.00  0.00    -0.361 OA
HETATM   20  H   LIG     1       4.340  21.397  17.253  1.00  0.00     0.217 HD
ENDBRANCH   7  19
ENDBRANCH   1   3
TORSDOF 5
ENDMDL
MODEL 7
REMARK VINA RESULT:      -8.0      4.289      9.352
REMARK  5 active torsions:
REMARK  status: ('A' for Active; 'I' for Inactive)
REMARK    1  A    between atoms: O_1  and  C_10 
REMARK    2  A    between atoms: O_2  and  C_11 
REMARK    3  A    between atoms: O_3  and  C_17 
REMARK    4  A    between atoms: C_4  and  C_6 
REMARK    5  A    between atoms: C_5  and  C_7 
ROOT
HETATM    1  O   LIG     1       2.562  16.018  19.934  1.00  0.00    -0.361 OA
HETATM    2  H   LIG     1       2.920  15.304  19.381  1.00  0.00     0.217 HD
ENDROOT
BRANCH   1   3
HETATM    3  C   LIG     1       2.489  17.154  19.181  1.00  0.00     0.069 A 
HETATM    4  C   LIG     1       3.593  18.005  19.184  1.00  0.00     0.048 A 
HETATM    5  C   LIG     1       3.578  19.182  18.423  1.00  0.00    -0.031 A 
HETATM    6  C   LIG     1       2.426  19.497  17.687  1.00  0.00     0.048 A 
HETATM    7  C   LIG     1       1.332  18.633  17.699  1.00  0.00     0.069 A 
HETATM    8  C   LIG     1       1.354  17.457  18.441  1.00  0.00     0.073 A 
BRANCH   5   9
HETATM    9  C   LIG     1       4.706  20.125  18.413  1.00  0.00     0.012 C 
HETATM   10  C   LIG     1       5.121  20.808  19.493  1.00  0.00     0.012 C 
BRANCH  10  11
HETATM   11  C   LIG     1       6.264  21.733  19.493  1.00  0.00    -0.036 A 
HETATM   12  C   LIG     1       6.584  22.411  20.677  1.00  0.00     0.014 A 
HETATM   13  C   LIG     1       7.647  23.317  20.713  1.00  0.00     0.037 A 
HETATM   14  C   LIG     1       8.386  23.558  19.563  1.00  0.00     0.065 A 
HETATM   15  C   LIG     1       8.076  22.911  18.372  1.00  0.00     0.037 A 
HETATM   16  C   LIG     1       7.013  22.004  18.338  1.00  0.00     0.014 A 
BRANCH  14  17
HETATM   17  O   LIG     1       9.414  24.449  19.642  1.00  0.00    -0.361 OA
HETATM   18  H   LIG     1       9.088  25.323  19.371  1.00  0.00     0.217 HD
ENDBRANCH  14  17
ENDBRANCH  10  11
ENDBRANCH   5   9
BRANCH   7  19
HETATM   19  O   LIG     1       0.202  18.908  16.986  1.00  0.00    -0.361 OA
HETATM   20  H   LIG     1      -0.095  19.808  17.205  1.00  0.00     0.217 HD
ENDBRANCH   7  19
ENDBRANCH   1   3
TORSDOF 5
ENDMDL
MODEL 8
REMARK VINA RESULT:      -7.8      4.440      6.678
REMARK  5 active torsions:
REMARK  status: ('A' for Active; 'I' for Inactive)
REMARK    1  A    between atoms: O_1  and  C_10 
REMARK    2  A    between atoms: O_2  and  C_11 
REMARK    3  A    between atoms: O_3  and  C_17 
REMARK    4  A    between atoms: C_4  and  C_6 
REMARK    5  A    between atoms: C_5  and  C_7 
ROOT
HETATM    1  O   LIG     1       7.859  24.010  21.799  1.00  0.00    -0.361 OA
HETATM    2  H   LIG     1       8.718  24.413  21.589  1.00  0.00     0.217 HD
ENDROOT
BRANCH   1   3
HETATM    3  C   LIG     1       7.417  23.337  20.697  1.00  0.00     0.069 A 
HETATM    4  C   LIG     1       6.491  22.313  20.891  1.00  0.00     0.048 A 
HETATM    5  C   LIG     1       5.996  21.593  19.795  1.00  0.00    -0.031 A 
HETATM    6  C   LIG     1       6.470  21.903  18.512  1.00  0.00     0.048 A 
HETATM    7  C   LIG     1       7.397  22.930  18.339  1.00  0.00     0.069 A 
HETATM    8  C   LIG     1       7.875  23.655  19.425  1.00  0.00     0.073 A 
BRANCH   5   9
HETATM    9  C   LIG     1       5.039  20.487  19.950  1.00  0.00     0.012 C 
HETATM   10  C   LIG     1       4.482  19.829  18.921  1.00  0.00     0.012 C 
BRANCH  10  11
HETATM   11  C   LIG     1       3.544  18.706  19.072  1.00  0.00    -0.036 A 
HETATM   12  C   LIG     1       3.531  17.995  20.280  1.00  0.00     0.014 A 
HETATM   13  C   LIG     1       2.673  16.907  20.456  1.00  0.00     0.037 A 
HETATM   14  C   LIG     1       1.834  16.518  19.421  1.00  0.00     0.065 A 
HETATM   15  C   LIG     1       1.842  17.195  18.207  1.00  0.00     0.037 A 
HETATM   16  C   LIG     1       2.701  18.285  18.033  1.00  0.00     0.014 A 
BRANCH  14  17
HETATM   17  O   LIG     1       1.012  15.451  19.634  1.00  0.00    -0.361 OA
HETATM   18  H   LIG     1       0.400  15.377  18.884  1.00  0.00     0.217 HD
ENDBRANCH  14  17
ENDBRANCH  10  11
ENDBRANCH   5   9
BRANCH   7  19
HETATM   19  O   LIG     1       7.869  23.260  17.103  1.00  0.00    -0.361 OA
HETATM   20  H   LIG     1       8.278  22.473  16.704  1.00  0.00     0.217 HD
ENDBRANCH   7  19
ENDBRANCH   1   3
TORSDOF 5
ENDMDL
MODEL 9
REMARK VINA RESULT:      -7.8      4.501      6.775
REMARK  5 active torsions:
REMARK  status: ('A' for Active; 'I' for Inactive)
REMARK    1  A    between atoms: O_1  and  C_10 
REMARK    2  A    between atoms: O_2  and  C_11 
REMARK    3  A    between atoms: O_3  and  C_17 
REMARK    4  A    between atoms: C_4  and  C_6 
REMARK    5  A    between atoms: C_5  and  C_7 
ROOT
HETATM    1  O   LIG     1       8.047  23.401  17.361  1.00  0.00    -0.361 OA
HETATM    2  H   LIG     1       7.392  23.150  16.688  1.00  0.00     0.217 HD
ENDROOT
BRANCH   1   3
HETATM    3  C   LIG     1       7.568  23.038  18.586  1.00  0.00     0.069 A 
HETATM    4  C   LIG     1       6.625  22.012  18.636  1.00  0.00     0.048 A 
HETATM    5  C   LIG     1       6.104  21.593  19.867  1.00  0.00    -0.031 A 
HETATM    6  C   LIG     1       6.526  22.241  21.037  1.00  0.00     0.048 A 
HETATM    7  C   LIG     1       7.470  23.266  20.966  1.00  0.00     0.069 A 
HETATM    8  C   LIG     1       7.998  23.670  19.746  1.00  0.00     0.073 A 
BRANCH   5   9
HETATM    9  C   LIG     1       5.089  20.534  19.970  1.00  0.00     0.012 C 
HETATM   10  C   LIG     1       4.537  19.920  18.911  1.00  0.00     0.012 C 
BRANCH  10  11
HETATM   11  C   LIG     1       3.540  18.844  19.010  1.00  0.00    -0.036 A 
HETATM   12  C   LIG     1       3.550  18.016  20.141  1.00  0.00     0.014 A 
HETATM   13  C   LIG     1       2.635  16.967  20.264  1.00  0.00     0.037 A 
HETATM   14  C   LIG     1       1.715  16.734  19.250  1.00  0.00     0.065 A 
HETATM   15  C   LIG     1       1.698  17.530  18.110  1.00  0.00     0.037 A 
HETATM   16  C   LIG     1       2.613  18.580  17.990  1.00  0.00     0.014 A 
BRANCH  14  17
HETATM   17  O   LIG     1       0.841  15.700  19.409  1.00  0.00    -0.361 OA
HETATM   18  H   LIG     1      -0.019  15.964  19.044  1.00  0.00     0.217 HD
ENDBRANCH  14  17
ENDBRANCH  10  11
ENDBRANCH   5   9
BRANCH   7  19
HETATM   19  O   LIG     1       7.906  23.908  22.087  1.00  0.00    -0.361 OA
HETATM   20  H   LIG     1       7.142  24.092  22.660  1.00  0.00     0.217 HD
ENDBRANCH   7  19
ENDBRANCH   1   3
TORSDOF 5
ENDMDL
