MODEL 1
REMARK VINA RESULT:      -9.1      0.000      0.000
REMARK  5 active torsions:
REMARK  status: ('A' for Active; 'I' for Inactive)
REMARK    1  A    between atoms: O_1  and  C_7 
REMARK    2  A    between atoms: O_2  and  C_8 
REMARK    3  A    between atoms: O_3  and  C_17 
REMARK    4  A    between atoms: C_4  and  C_9 
REMARK    5  A    between atoms: C_10  and  C_12 
ROOT
HETATM    1  O   LIG     1      -2.027  13.949  16.623  1.00  0.00    -0.356 OA
HETATM    2  C   LIG     1      -2.359  15.292  16.291  1.00  0.00     0.210 C 
ENDROOT
BRANCH   1   3
HETATM    3  C   LIG     1      -1.266  13.768  17.747  1.00  0.00     0.071 A 
HETATM    4  C   LIG     1      -0.440  14.845  18.080  1.00  0.00     0.048 A 
HETATM    5  C   LIG     1       0.376  14.798  19.216  1.00  0.00    -0.031 A 
HETATM    6  C   LIG     1       0.383  13.635  19.998  1.00  0.00     0.048 A 
HETATM    7  C   LIG     1      -0.434  12.554  19.676  1.00  0.00     0.071 A 
HETATM    8  C   LIG     1      -1.260  12.627  18.550  1.00  0.00     0.073 A 
BRANCH   5   9
HETATM    9  C   LIG     1       1.264  15.933  19.521  1.00  0.00     0.012 C 
HETATM   10  C   LIG     1       1.902  16.661  18.591  1.00  0.00     0.012 C 
BRANCH  10  11
HETATM   11  C   LIG     1       2.746  17.824  18.897  1.00  0.00    -0.036 A 
HETATM   12  C   LIG     1       3.419  17.867  20.125  1.00  0.00     0.014 A 
HETATM   13  C   LIG     1       4.226  18.955  20.452  1.00  0.00     0.037 A 
HETATM   14  C   LIG     1       4.352  20.011  19.557  1.00  0.00     0.065 A 
HETATM   15  C   LIG     1       3.680  19.997  18.340  1.00  0.00     0.037 A 
HETATM   16  C   LIG     1       2.872  18.906  18.016  1.00  0.00     0.014 A 
BRANCH  14  17
HETATM   17  O   LIG     1       5.151  21.057  19.911  1.00  0.00    -0.361 OA
HETATM   18  H   LIG     1       6.074  20.757  19.889  1.00  0.00     0.217 HD
ENDBRANCH  14  17
ENDBRANCH  10  11
ENDBRANCH   5   9
BRANCH   7  19
HETATM   19  O   LIG     1      -0.506  11.376  20.370  1.00  0.00    -0.356 OA
HETATM   20  C   LIG     1      -0.899  11.465  21.734  1.00  0.00     0.210 C 
ENDBRANCH   7  19
ENDBRANCH   1   3
TORSDOF 5
ENDMDL
MODEL 2
REMARK VINA RESULT:      -9.0      1.045      3.192
REMARK  5 active torsions:
REMARK  status: ('A' for Active; 'I' for Inactive)
REMARK    1  A    between atoms: O_1  and  C_7 
REMARK    2  A    between atoms: O_2  and  C_8 
REMARK    3  A    between atoms: O_3  and  C_17 
REMARK    4  A    between atoms: C_4  and  C_9 
REMARK    5  A    between atoms: C_10  and  C_12 
ROOT
HETATM    1  O   LIG     1       0.028  12.758  20.847  1.00  0.00    -0.356 OA
HETATM    2  C   LIG     1      -0.490  11.439  20.968  1.00  0.00     0.210 C 
ENDROOT
BRANCH   1   3
HETATM    3  C   LIG     1      -0.258  13.422  19.684  1.00  0.00     0.071 A 
HETATM    4  C   LIG     1       0.362  14.666  19.547  1.00  0.00     0.048 A 
HETATM    5  C   LIG     1       0.169  15.442  18.398  1.00  0.00    -0.031 A 
HETATM    6  C   LIG     1      -0.690  14.967  17.397  1.00  0.00     0.048 A 
HETATM    7  C   LIG     1      -1.315  13.729  17.522  1.00  0.00     0.071 A 
HETATM    8  C   LIG     1      -1.093  12.958  18.667  1.00  0.00     0.073 A 
BRANCH   5   9
HETATM    9  C   LIG     1       0.805  16.766  18.299  1.00  0.00     0.012 C 
HETATM   10  C   LIG     1       2.042  17.043  18.741  1.00  0.00     0.012 C 
BRANCH  10  11
HETATM   11  C   LIG     1       2.691  18.352  18.595  1.00  0.00    -0.036 A 
HETATM   12  C   LIG     1       2.156  19.274  17.685  1.00  0.00     0.014 A 
HETATM   13  C   LIG     1       2.747  20.526  17.517  1.00  0.00     0.037 A 
HETATM   14  C   LIG     1       3.882  20.854  18.248  1.00  0.00     0.065 A 
HETATM   15  C   LIG     1       4.440  19.948  19.142  1.00  0.00     0.037 A 
HETATM   16  C   LIG     1       3.847  18.696  19.308  1.00  0.00     0.014 A 
BRANCH  14  17
HETATM   17  O   LIG     1       4.431  22.087  18.057  1.00  0.00    -0.361 OA
HETATM   18  H   LIG     1       5.391  21.982  17.960  1.00  0.00     0.217 HD
ENDBRANCH  14  17
ENDBRANCH  10  11
ENDBRANCH   5   9
BRANCH   7  19
HETATM   19  O   LIG     1      -2.168  13.172  16.607  1.00  0.00    -0.356 OA
HETATM   20  C   LIG     1      -2.766  14.061  15.672  1.00  0.00     0.210 C 
ENDBRANCH   7  19
ENDBRANCH   1   3
TORSDOF 5
ENDMDL
MODEL 3
REMARK VINA RESULT:      -9.0      0.748      3.053
REMARK  5 active torsions:
REMARK  status: ('A' for Active; 'I' for Inactive)
REMARK    1  A    between atoms: O_1  and  C_7 
REMARK    2  A    between atoms: O_2  and  C_8 
REMARK    3  A    between atoms: O_3  and  C_17 
REMARK    4  A    between atoms: C_4  and  C_9 
REMARK    5  A    between atoms: C_10  and  C_12 
ROOT
HETATM    1  O   LIG     1      -0.835  12.004  19.606  1.00  0.00    -0.356 OA
HETATM    2  C   LIG     1      -0.491  12.193  20.974  1.00  0.00     0.210 C 
ENDROOT
BRANCH   1   3
HETATM    3  C   LIG     1      -0.804  13.118  18.810  1.00  0.00     0.071 A 
HETATM    4  C   LIG     1       0.084  14.114  19.223  1.00  0.00     0.048 A 
HETATM    5  C   LIG     1       0.227  15.298  18.489  1.00  0.00    -0.031 A 
HETATM    6  C   LIG     1      -0.565  15.487  17.349  1.00  0.00     0.048 A 
HETATM    7  C   LIG     1      -1.455  14.502  16.927  1.00  0.00     0.071 A 
HETATM    8  C   LIG     1      -1.569  13.317  17.660  1.00  0.00     0.073 A 
BRANCH   5   9
HETATM    9  C   LIG     1       1.142  16.345  18.970  1.00  0.00     0.012 C 
HETATM   10  C   LIG     1       1.929  17.083  18.172  1.00  0.00     0.012 C 
BRANCH  10  11
HETATM   11  C   LIG     1       2.804  18.162  18.652  1.00  0.00    -0.036 A 
HETATM   12  C   LIG     1       3.402  18.037  19.913  1.00  0.00     0.014 A 
HETATM   13  C   LIG     1       4.235  19.042  20.404  1.00  0.00     0.037 A 
HETATM   14  C   LIG     1       4.462  20.180  19.640  1.00  0.00     0.065 A 
HETATM   15  C   LIG     1       3.865  20.332  18.394  1.00  0.00     0.037 A 
HETATM   16  C   LIG     1       3.031  19.326  17.906  1.00  0.00     0.014 A 
BRANCH  14  17
HETATM   17  O   LIG     1       5.283  21.140  20.152  1.00  0.00    -0.361 OA
HETATM   18  H   LIG     1       4.892  22.008  19.964  1.00  0.00     0.217 HD
ENDBRANCH  14  17
ENDBRANCH  10  11
ENDBRANCH   5   9
BRANCH   7  19
HETATM   19  O   LIG     1      -2.272  14.583  15.830  1.00  0.00    -0.356 OA
HETATM   20  C   LIG     1      -2.655  15.890  15.419  1.00  0.00     0.210 C 
ENDBRANCH   7  19
ENDBRANCH   1   3
TORSDOF 5
ENDMDL
MODEL 4
REMARK VINA RESULT:      -8.8      1.085      1.563
REMARK  5 active torsions:
REMARK  status: ('A' for Active; 'I' for Inactive)
REMARK    1  A    between atoms: O_1  and  C_7 
REMARK    2  A    between atoms: O_2  and  C_8 
REMARK    3  A    between atoms: O_3  and  C_17 
REMARK    4  A    between atoms: C_4  and  C_9 
REMARK    5  A    between atoms: C_10  and  C_12 
ROOT
HETATM    1  O   LIG     1      -1.697  13.447  17.139  1.00  0.00    -0.356 OA
HETATM    2  C   LIG     1      -1.879  14.561  16.274  1.00  0.00     0.210 C 
ENDROOT
BRANCH   1   3
HETATM    3  C   LIG     1      -0.921  13.655  18.248  1.00  0.00     0.071 A 
HETATM    4  C   LIG     1      -0.198  14.851  18.246  1.00  0.00     0.048 A 
HETATM    5  C   LIG     1       0.622  15.195  19.327  1.00  0.00    -0.031 A 
HETATM    6  C   LIG     1       0.737  14.303  20.401  1.00  0.00     0.048 A 
HETATM    7  C   LIG     1       0.022  13.107  20.415  1.00  0.00     0.071 A 
HETATM    8  C   LIG     1      -0.809  12.790  19.336  1.00  0.00     0.073 A 
BRANCH   5   9
HETATM    9  C   LIG     1       1.401  16.443  19.278  1.00  0.00     0.012 C 
HETATM   10  C   LIG     1       1.750  17.071  18.144  1.00  0.00     0.012 C 
BRANCH  10  11
HETATM   11  C   LIG     1       2.484  18.343  18.103  1.00  0.00    -0.036 A 
HETATM   12  C   LIG     1       1.877  19.455  17.504  1.00  0.00     0.014 A 
HETATM   13  C   LIG     1       2.544  20.678  17.444  1.00  0.00     0.037 A 
HETATM   14  C   LIG     1       3.826  20.788  17.969  1.00  0.00     0.065 A 
HETATM   15  C   LIG     1       4.453  19.694  18.552  1.00  0.00     0.037 A 
HETATM   16  C   LIG     1       3.783  18.471  18.611  1.00  0.00     0.014 A 
BRANCH  14  17
HETATM   17  O   LIG     1       4.446  22.000  17.893  1.00  0.00    -0.361 OA
HETATM   18  H   LIG     1       5.142  22.029  18.568  1.00  0.00     0.217 HD
ENDBRANCH  14  17
ENDBRANCH  10  11
ENDBRANCH   5   9
BRANCH   7  19
HETATM   19  O   LIG     1       0.060  12.169  21.411  1.00  0.00    -0.356 OA
HETATM   20  C   LIG     1      -0.812  11.055  21.268  1.00  0.00     0.210 C 
ENDBRANCH   7  19
ENDBRANCH   1   3
TORSDOF 5
ENDMDL
MODEL 5
REMARK VINA RESULT:      -8.4      1.579      3.594
REMARK  5 active torsions:
REMARK  status: ('A' for Active; 'I' for Inactive)
REMARK    1  A    between atoms: O_1  and  C_7 
REMARK    2  A    between atoms: O_2  and  C_8 
REMARK    3  A    between atoms: O_3  and  C_17 
REMARK    4  A    between atoms: C_4  and  C_9 
REMARK    5  A    between atoms: C_10  and  C_12 
ROOT
HETATM    1  O   LIG     1       0.165  13.356  20.091  1.00  0.00    -0.356 OA
HETATM    2  C   LIG     1       1.187  13.536  21.065  1.00  0.00     0.210 C 
ENDROOT
BRANCH   1   3
HETATM    3  C   LIG     1      -0.011  14.377  19.196  1.00  0.00     0.071 A 
HETATM    4  C   LIG     1       0.903  15.427  19.311  1.00  0.00     0.048 A 
HETATM    5  C   LIG     1       0.846  16.526  18.445  1.00  0.00    -0.031 A 
HETATM    6  C   LIG     1      -0.169  16.578  17.482  1.00  0.00     0.048 A 
HETATM    7  C   LIG     1      -1.088  15.538  17.358  1.00  0.00     0.071 A 
HETATM    8  C   LIG     1      -1.003  14.438  18.216  1.00  0.00     0.073 A 
BRANCH   5   9
HETATM    9  C   LIG     1       1.800  17.635  18.615  1.00  0.00     0.012 C 
HETATM   10  C   LIG     1       2.009  18.596  17.702  1.00  0.00     0.012 C 
BRANCH  10  11
HETATM   11  C   LIG     1       2.924  19.728  17.897  1.00  0.00    -0.036 A 
HETATM   12  C   LIG     1       4.150  19.504  18.540  1.00  0.00     0.014 A 
HETATM   13  C   LIG     1       5.043  20.555  18.746  1.00  0.00     0.037 A 
HETATM   14  C   LIG     1       4.707  21.835  18.322  1.00  0.00     0.065 A 
HETATM   15  C   LIG     1       3.490  22.083  17.699  1.00  0.00     0.037 A 
HETATM   16  C   LIG     1       2.598  21.030  17.494  1.00  0.00     0.014 A 
BRANCH  14  17
HETATM   17  O   LIG     1       5.606  22.837  18.540  1.00  0.00    -0.361 OA
HETATM   18  H   LIG     1       6.292  22.505  19.142  1.00  0.00     0.217 HD
ENDBRANCH  14  17
ENDBRANCH  10  11
ENDBRANCH   5   9
BRANCH   7  19
HETATM   19  O   LIG     1      -2.115  15.486  16.452  1.00  0.00    -0.356 OA
HETATM   20  C   LIG     1      -2.449  16.705  15.801  1.00  0.00     0.210 C 
ENDBRANCH   7  19
ENDBRANCH   1   3
TORSDOF 5
ENDMDL
MODEL 6
REMARK VINA RESULT:      -8.3      1.447      2.014
REMARK  5 active torsions:
REMARK  status: ('A' for Active; 'I' for Inactive)
REMARK    1  A    between atoms: O_1  and  C_7 
REMARK    2  A    between atoms: O_2  and  C_8 
REMARK    3  A    between atoms: O_3  and  C_17 
REMARK    4  A    between atoms: C_4  and  C_9 
REMARK    5  A    between atoms: C_10  and  C_12 
ROOT
HETATM    1  O   LIG     1      -1.806  14.885  16.117  1.00  0.00    -0.356 OA
HETATM    2  C   LIG     1      -2.363  13.588  15.941  1.00  0.00     0.210 C 
ENDROOT
BRANCH   1   3
HETATM    3  C   LIG     1      -0.951  15.044  17.175  1.00  0.00     0.071 A 
HETATM    4  C   LIG     1      -0.327  16.292  17.247  1.00  0.00     0.048 A 
HETATM    5  C   LIG     1       0.559  16.592  18.289  1.00  0.00    -0.031 A 
HETATM    6  C   LIG     1       0.841  15.606  19.243  1.00  0.00     0.048 A 
HETATM    7  C   LIG     1       0.227  14.357  19.182  1.00  0.00     0.071 A 
HETATM    8  C   LIG     1      -0.671  14.082  18.146  1.00  0.00     0.073 A 
BRANCH   5   9
HETATM    9  C   LIG     1       1.230  17.902  18.317  1.00  0.00     0.012 C 
HETATM   10  C   LIG     1       2.544  18.080  18.107  1.00  0.00     0.012 C 
BRANCH  10  11
HETATM   11  C   LIG     1       3.201  19.394  18.086  1.00  0.00    -0.036 A 
HETATM   12  C   LIG     1       4.473  19.524  18.657  1.00  0.00     0.014 A 
HETATM   13  C   LIG     1       5.126  20.756  18.659  1.00  0.00     0.037 A 
HETATM   14  C   LIG     1       4.503  21.865  18.100  1.00  0.00     0.065 A 
HETATM   15  C   LIG     1       3.233  21.762  17.543  1.00  0.00     0.037 A 
HETATM   16  C   LIG     1       2.582  20.528  17.544  1.00  0.00     0.014 A 
BRANCH  14  17
HETATM   17  O   LIG     1       5.172  23.052  18.119  1.00  0.00    -0.361 OA
HETATM   18  H   LIG     1       4.666  23.696  17.598  1.00  0.00     0.217 HD
ENDBRANCH  14  17
ENDBRANCH  10  11
ENDBRANCH   5   9
BRANCH   7  19
HETATM   19  O   LIG     1       0.429  13.326  20.060  1.00  0.00    -0.356 OA
HETATM   20  C   LIG     1      -0.534  12.280  20.045  1.00  0.00     0.210 C 
ENDBRANCH   7  19
ENDBRANCH   1   3
TORSDOF 5
ENDMDL
MODEL 7
REMARK VINA RESULT:      -8.3      3.409      5.429
REMARK  5 active torsions:
REMARK  status: ('A' for Active; 'I' for Inactive)
REMARK    1  A    between atoms: O_1  and  C_7 
REMARK    2  A    between atoms: O_2  and  C_8 
REMARK    3  A    between atoms: O_3  and  C_17 
REMARK    4  A    between atoms: C_4  and  C_9 
REMARK    5  A    between atoms: C_10  and  C_12 
ROOT
HETATM    1  O   LIG     1       0.466  18.545  17.239  1.00  0.00    -0.356 OA
HETATM    2  C   LIG     1      -0.644  17.668  17.389  1.00  0.00     0.210 C 
ENDROOT
BRANCH   1   3
HETATM    3  C   LIG     1       1.552  18.298  18.035  1.00  0.00     0.071 A 
HETATM    4  C   LIG     1       2.538  19.287  18.012  1.00  0.00     0.048 A 
HETATM    5  C   LIG     1       3.693  19.167  18.795  1.00  0.00    -0.031 A 
HETATM    6  C   LIG     1       3.865  18.017  19.576  1.00  0.00     0.048 A 
HETATM    7  C   LIG     1       2.890  17.023  19.607  1.00  0.00     0.071 A 
HETATM    8  C   LIG     1       1.733  17.169  18.836  1.00  0.00     0.073 A 
BRANCH   5   9
HETATM    9  C   LIG     1       4.732  20.207  18.720  1.00  0.00     0.012 C 
HETATM   10  C   LIG     1       5.324  20.760  19.791  1.00  0.00     0.012 C 
BRANCH  10  11
HETATM   11  C   LIG     1       6.396  21.761  19.711  1.00  0.00    -0.036 A 
HETATM   12  C   LIG     1       7.149  21.852  18.532  1.00  0.00     0.014 A 
HETATM   13  C   LIG     1       8.176  22.788  18.420  1.00  0.00     0.037 A 
HETATM   14  C   LIG     1       8.463  23.626  19.491  1.00  0.00     0.065 A 
HETATM   15  C   LIG     1       7.739  23.541  20.675  1.00  0.00     0.037 A 
HETATM   16  C   LIG     1       6.712  22.603  20.784  1.00  0.00     0.014 A 
BRANCH  14  17
HETATM   17  O   LIG     1       9.473  24.529  19.344  1.00  0.00    -0.361 OA
HETATM   18  H   LIG     1       9.580  24.715  18.397  1.00  0.00     0.217 HD
ENDBRANCH  14  17
ENDBRANCH  10  11
ENDBRANCH   5   9
BRANCH   7  19
HETATM   19  O   LIG     1       2.956  15.865  20.335  1.00  0.00    -0.356 OA
HETATM   20  C   LIG     1       1.746  15.130  20.472  1.00  0.00     0.210 C 
ENDBRANCH   7  19
ENDBRANCH   1   3
TORSDOF 5
ENDMDL
MODEL 8
REMARK VINA RESULT:      -8.2      3.681      6.086
REMARK  5 active torsions:
REMARK  status: ('A' for Active; 'I' for Inactive)
REMARK    1  A    between atoms: O_1  and  C_7 
REMARK    2  A    between atoms: O_2  and  C_8 
REMARK    3  A    between atoms: O_3  and  C_17 
REMARK    4  A    between atoms: C_4  and  C_9 
REMARK    5  A    between atoms: C_10  and  C_12 
ROOT
HETATM    1  O   LIG     1       3.347  15.826  20.042  1.00  0.00    -0.356 OA
HETATM    2  C   LIG     1       4.732  15.503  20.079  1.00  0.00     0.210 C 
ENDROOT
BRANCH   1   3
HETATM    3  C   LIG     1       3.003  16.962  19.359  1.00  0.00     0.071 A 
HETATM    4  C   LIG     1       4.014  17.922  19.265  1.00  0.00     0.048 A 
HETATM    5  C   LIG     1       3.801  19.123  18.578  1.00  0.00    -0.031 A 
HETATM    6  C   LIG     1       2.542  19.368  18.016  1.00  0.00     0.048 A 
HETATM    7  C   LIG     1       1.525  18.420  18.104  1.00  0.00     0.071 A 
HETATM    8  C   LIG     1       1.762  17.217  18.775  1.00  0.00     0.073 A 
BRANCH   5   9
HETATM    9  C   LIG     1       4.873  20.132  18.529  1.00  0.00     0.012 C 
HETATM   10  C   LIG     1       5.267  20.866  19.581  1.00  0.00     0.012 C 
BRANCH  10  11
HETATM   11  C   LIG     1       6.371  21.834  19.539  1.00  0.00    -0.036 A 
HETATM   12  C   LIG     1       6.724  22.509  20.716  1.00  0.00     0.014 A 
HETATM   13  C   LIG     1       7.764  23.437  20.714  1.00  0.00     0.037 A 
HETATM   14  C   LIG     1       8.445  23.704  19.532  1.00  0.00     0.065 A 
HETATM   15  C   LIG     1       8.100  23.059  18.350  1.00  0.00     0.037 A 
HETATM   16  C   LIG     1       7.058  22.131  18.355  1.00  0.00     0.014 A 
BRANCH  14  17
HETATM   17  O   LIG     1       9.457  24.617  19.569  1.00  0.00    -0.361 OA
HETATM   18  H   LIG     1      10.265  24.164  19.859  1.00  0.00     0.217 HD
ENDBRANCH  14  17
ENDBRANCH  10  11
ENDBRANCH   5   9
BRANCH   7  19
HETATM   19  O   LIG     1       0.263  18.556  17.590  1.00  0.00    -0.356 OA
HETATM   20  C   LIG     1      -0.433  17.353  17.286  1.00  0.00     0.210 C 
ENDBRANCH   7  19
ENDBRANCH   1   3
TORSDOF 5
ENDMDL
MODEL 9
REMARK VINA RESULT:      -8.2      1.751      8.410
REMARK  5 active torsions:
REMARK  status: ('A' for Active; 'I' for Inactive)
REMARK    1  A    between atoms: O_1  and  C_7 
REMARK    2  A    between atoms: O_2  and  C_8 
REMARK    3  A    between atoms: O_3  and  C_17 
REMARK    4  A    between atoms: C_4  and  C_9 
REMARK    5  A    between atoms: C_10  and  C_12 
ROOT
HETATM    1  O   LIG     1       5.392  20.131  20.394  1.00  0.00    -0.356 OA
HETATM    2  C   LIG     1       6.208  21.292  20.491  1.00  0.00     0.210 C 
ENDROOT
BRANCH   1   3
HETATM    3  C   LIG     1       4.413  20.152  19.437  1.00  0.00     0.071 A 
HETATM    4  C   LIG     1       3.717  18.951  19.279  1.00  0.00     0.048 A 
HETATM    5  C   LIG     1       2.679  18.840  18.347  1.00  0.00    -0.031 A 
HETATM    6  C   LIG     1       2.369  19.946  17.544  1.00  0.00     0.048 A 
HETATM    7  C   LIG     1       3.056  21.149  17.691  1.00  0.00     0.071 A 
HETATM    8  C   LIG     1       4.076  21.247  18.642  1.00  0.00     0.073 A 
BRANCH   5   9
HETATM    9  C   LIG     1       1.990  17.551  18.176  1.00  0.00     0.012 C 
HETATM   10  C   LIG     1       0.678  17.425  17.922  1.00  0.00     0.012 C 
BRANCH  10  11
HETATM   11  C   LIG     1       0.004  16.138  17.702  1.00  0.00    -0.036 A 
HETATM   12  C   LIG     1      -0.644  15.914  16.480  1.00  0.00     0.014 A 
HETATM   13  C   LIG     1      -1.296  14.706  16.236  1.00  0.00     0.037 A 
HETATM   14  C   LIG     1      -1.313  13.723  17.218  1.00  0.00     0.065 A 
HETATM   15  C   LIG     1      -0.691  13.931  18.444  1.00  0.00     0.037 A 
HETATM   16  C   LIG     1      -0.039  15.141  18.685  1.00  0.00     0.014 A 
BRANCH  14  17
HETATM   17  O   LIG     1      -1.960  12.555  16.943  1.00  0.00    -0.361 OA
HETATM   18  H   LIG     1      -1.975  12.018  17.751  1.00  0.00     0.217 HD
ENDBRANCH  14  17
ENDBRANCH  10  11
ENDBRANCH   5   9
BRANCH   7  19
HETATM   19  O   LIG     1       2.833  22.287  16.962  1.00  0.00    -0.356 OA
HETATM   20  C   LIG     1       3.761  23.350  17.145  1.00  0.00     0.210 C 
ENDBRANCH   7  19
ENDBRANCH   1   3
TORSDOF 5
ENDMDL
