MODEL 1
REMARK VINA RESULT:      -8.9      0.000      0.000
REMARK  5 active torsions:
REMARK  status: ('A' for Active; 'I' for Inactive)
REMARK    1  A    between atoms: O_1  and  C_9 
REMARK    2  A    between atoms: O_2  and  C_11 
REMARK    3  A    between atoms: O_3  and  C_17 
REMARK    4  A    between atoms: C_4  and  C_7 
REMARK    5  A    between atoms: C_5  and  C_10 
ROOT
HETATM    1  O   LIG     1      -1.996  13.746  16.653  1.00  0.00    -0.356 OA
HETATM    2  C   LIG     1      -2.412  14.992  16.101  1.00  0.00     0.210 C 
ENDROOT
BRANCH   1   3
HETATM    3  C   LIG     1      -1.182  13.813  17.752  1.00  0.00     0.071 A 
HETATM    4  C   LIG     1      -0.352  14.889  18.074  1.00  0.00     0.048 A 
HETATM    5  C   LIG     1       0.442  14.872  19.229  1.00  0.00    -0.031 A 
HETATM    6  C   LIG     1       0.408  13.746  20.057  1.00  0.00     0.048 A 
HETATM    7  C   LIG     1      -0.416  12.673  19.732  1.00  0.00     0.069 A 
HETATM    8  C   LIG     1      -1.210  12.696  18.589  1.00  0.00     0.073 A 
BRANCH   5   9
HETATM    9  C   LIG     1       1.308  16.032  19.467  1.00  0.00     0.012 C 
HETATM   10  C   LIG     1       1.739  16.880  18.519  1.00  0.00     0.012 C 
BRANCH  10  11
HETATM   11  C   LIG     1       2.645  18.003  18.798  1.00  0.00    -0.036 A 
HETATM   12  C   LIG     1       3.370  18.005  20.001  1.00  0.00     0.014 A 
HETATM   13  C   LIG     1       4.220  19.067  20.313  1.00  0.00     0.037 A 
HETATM   14  C   LIG     1       4.345  20.135  19.434  1.00  0.00     0.065 A 
HETATM   15  C   LIG     1       3.624  20.164  18.245  1.00  0.00     0.037 A 
HETATM   16  C   LIG     1       2.771  19.103  17.936  1.00  0.00     0.014 A 
BRANCH  14  17
HETATM   17  O   LIG     1       5.187  21.148  19.778  1.00  0.00    -0.361 OA
HETATM   18  H   LIG     1       5.835  20.809  20.417  1.00  0.00     0.217 HD
ENDBRANCH  14  17
ENDBRANCH  10  11
ENDBRANCH   5   9
BRANCH   7  19
HETATM   19  O   LIG     1      -0.411  11.596  20.572  1.00  0.00    -0.361 OA
HETATM   20  H   LIG     1      -0.575  11.907  21.478  1.00  0.00     0.217 HD
ENDBRANCH   7  19
ENDBRANCH   1   3
TORSDOF 5
ENDMDL
MODEL 2
REMARK VINA RESULT:      -8.8      0.745      2.517
REMARK  5 active torsions:
REMARK  status: ('A' for Active; 'I' for Inactive)
REMARK    1  A    between atoms: O_1  and  C_9 
REMARK    2  A    between atoms: O_2  and  C_11 
REMARK    3  A    between atoms: O_3  and  C_17 
REMARK    4  A    between atoms: C_4  and  C_7 
REMARK    5  A    between atoms: C_5  and  C_10 
ROOT
HETATM    1  O   LIG     1      -0.853  11.839  19.563  1.00  0.00    -0.356 OA
HETATM    2  C   LIG     1      -0.494  11.879  20.941  1.00  0.00     0.210 C 
ENDROOT
BRANCH   1   3
HETATM    3  C   LIG     1      -0.745  13.018  18.874  1.00  0.00     0.071 A 
HETATM    4  C   LIG     1       0.101  14.075  19.218  1.00  0.00     0.048 A 
HETATM    5  C   LIG     1       0.150  15.243  18.445  1.00  0.00    -0.031 A 
HETATM    6  C   LIG     1      -0.678  15.350  17.324  1.00  0.00     0.048 A 
HETATM    7  C   LIG     1      -1.523  14.298  16.986  1.00  0.00     0.069 A 
HETATM    8  C   LIG     1      -1.564  13.134  17.750  1.00  0.00     0.073 A 
BRANCH   5   9
HETATM    9  C   LIG     1       1.043  16.315  18.903  1.00  0.00     0.012 C 
HETATM   10  C   LIG     1       1.818  17.066  18.105  1.00  0.00     0.012 C 
BRANCH  10  11
HETATM   11  C   LIG     1       2.733  18.098  18.614  1.00  0.00    -0.036 A 
HETATM   12  C   LIG     1       3.300  17.931  19.887  1.00  0.00     0.014 A 
HETATM   13  C   LIG     1       4.151  18.903  20.415  1.00  0.00     0.037 A 
HETATM   14  C   LIG     1       4.434  20.048  19.682  1.00  0.00     0.065 A 
HETATM   15  C   LIG     1       3.870  20.244  18.426  1.00  0.00     0.037 A 
HETATM   16  C   LIG     1       3.015  19.273  17.901  1.00  0.00     0.014 A 
BRANCH  14  17
HETATM   17  O   LIG     1       5.271  20.969  20.235  1.00  0.00    -0.361 OA
HETATM   18  H   LIG     1       5.909  20.506  20.802  1.00  0.00     0.217 HD
ENDBRANCH  14  17
ENDBRANCH  10  11
ENDBRANCH   5   9
BRANCH   7  19
HETATM   19  O   LIG     1      -2.314  14.452  15.883  1.00  0.00    -0.361 OA
HETATM   20  H   LIG     1      -3.120  13.922  16.002  1.00  0.00     0.217 HD
ENDBRANCH   7  19
ENDBRANCH   1   3
TORSDOF 5
ENDMDL
MODEL 3
REMARK VINA RESULT:      -8.8      1.098      2.837
REMARK  5 active torsions:
REMARK  status: ('A' for Active; 'I' for Inactive)
REMARK    1  A    between atoms: O_1  and  C_9 
REMARK    2  A    between atoms: O_2  and  C_11 
REMARK    3  A    between atoms: O_3  and  C_17 
REMARK    4  A    between atoms: C_4  and  C_7 
REMARK    5  A    between atoms: C_5  and  C_10 
ROOT
HETATM    1  O   LIG     1       0.088  12.789  21.026  1.00  0.00    -0.356 OA
HETATM    2  C   LIG     1      -0.499  11.491  20.983  1.00  0.00     0.210 C 
ENDROOT
BRANCH   1   3
HETATM    3  C   LIG     1      -0.093  13.573  19.918  1.00  0.00     0.071 A 
HETATM    4  C   LIG     1       0.495  14.823  19.713  1.00  0.00     0.048 A 
HETATM    5  C   LIG     1       0.258  15.551  18.539  1.00  0.00    -0.031 A 
HETATM    6  C   LIG     1      -0.597  15.016  17.571  1.00  0.00     0.048 A 
HETATM    7  C   LIG     1      -1.185  13.772  17.779  1.00  0.00     0.069 A 
HETATM    8  C   LIG     1      -0.941  13.047  18.943  1.00  0.00     0.073 A 
BRANCH   5   9
HETATM    9  C   LIG     1       0.890  16.871  18.427  1.00  0.00     0.012 C 
HETATM   10  C   LIG     1       2.207  17.107  18.542  1.00  0.00     0.012 C 
BRANCH  10  11
HETATM   11  C   LIG     1       2.790  18.454  18.469  1.00  0.00    -0.036 A 
HETATM   12  C   LIG     1       2.200  19.402  17.617  1.00  0.00     0.014 A 
HETATM   13  C   LIG     1       2.742  20.682  17.500  1.00  0.00     0.037 A 
HETATM   14  C   LIG     1       3.877  21.022  18.224  1.00  0.00     0.065 A 
HETATM   15  C   LIG     1       4.490  20.096  19.061  1.00  0.00     0.037 A 
HETATM   16  C   LIG     1       3.949  18.813  19.173  1.00  0.00     0.014 A 
BRANCH  14  17
HETATM   17  O   LIG     1       4.370  22.284  18.081  1.00  0.00    -0.361 OA
HETATM   18  H   LIG     1       4.027  22.659  17.254  1.00  0.00     0.217 HD
ENDBRANCH  14  17
ENDBRANCH  10  11
ENDBRANCH   5   9
BRANCH   7  19
HETATM   19  O   LIG     1      -2.014  13.294  16.805  1.00  0.00    -0.361 OA
HETATM   20  H   LIG     1      -2.607  12.633  17.198  1.00  0.00     0.217 HD
ENDBRANCH   7  19
ENDBRANCH   1   3
TORSDOF 5
ENDMDL
MODEL 4
REMARK VINA RESULT:      -8.7      1.650      7.514
REMARK  5 active torsions:
REMARK  status: ('A' for Active; 'I' for Inactive)
REMARK    1  A    between atoms: O_1  and  C_9 
REMARK    2  A    between atoms: O_2  and  C_11 
REMARK    3  A    between atoms: O_3  and  C_17 
REMARK    4  A    between atoms: C_4  and  C_7 
REMARK    5  A    between atoms: C_5  and  C_10 
ROOT
HETATM    1  O   LIG     1       3.631  21.420  18.091  1.00  0.00    -0.356 OA
HETATM    2  C   LIG     1       4.849  22.070  18.444  1.00  0.00     0.210 C 
ENDROOT
BRANCH   1   3
HETATM    3  C   LIG     1       3.457  20.153  18.582  1.00  0.00     0.071 A 
HETATM    4  C   LIG     1       2.619  19.184  18.025  1.00  0.00     0.048 A 
HETATM    5  C   LIG     1       2.511  17.908  18.594  1.00  0.00    -0.031 A 
HETATM    6  C   LIG     1       3.244  17.615  19.748  1.00  0.00     0.048 A 
HETATM    7  C   LIG     1       4.074  18.585  20.304  1.00  0.00     0.069 A 
HETATM    8  C   LIG     1       4.187  19.849  19.732  1.00  0.00     0.073 A 
BRANCH   5   9
HETATM    9  C   LIG     1       1.580  16.966  17.961  1.00  0.00     0.012 C 
HETATM   10  C   LIG     1       0.707  16.185  18.619  1.00  0.00     0.012 C 
BRANCH  10  11
HETATM   11  C   LIG     1      -0.174  15.222  17.944  1.00  0.00    -0.036 A 
HETATM   12  C   LIG     1      -0.708  15.556  16.689  1.00  0.00     0.014 A 
HETATM   13  C   LIG     1      -1.570  14.679  16.030  1.00  0.00     0.037 A 
HETATM   14  C   LIG     1      -1.912  13.470  16.621  1.00  0.00     0.065 A 
HETATM   15  C   LIG     1      -1.410  13.123  17.872  1.00  0.00     0.037 A 
HETATM   16  C   LIG     1      -0.551  14.005  18.532  1.00  0.00     0.014 A 
BRANCH  14  17
HETATM   17  O   LIG     1      -2.754  12.643  15.942  1.00  0.00    -0.361 OA
HETATM   18  H   LIG     1      -3.050  11.941  16.543  1.00  0.00     0.217 HD
ENDBRANCH  14  17
ENDBRANCH  10  11
ENDBRANCH   5   9
BRANCH   7  19
HETATM   19  O   LIG     1       4.767  18.251  21.433  1.00  0.00    -0.361 OA
HETATM   20  H   LIG     1       4.609  18.932  22.107  1.00  0.00     0.217 HD
ENDBRANCH   7  19
ENDBRANCH   1   3
TORSDOF 5
ENDMDL
MODEL 5
REMARK VINA RESULT:      -8.7      2.121      7.475
REMARK  5 active torsions:
REMARK  status: ('A' for Active; 'I' for Inactive)
REMARK    1  A    between atoms: O_1  and  C_9 
REMARK    2  A    between atoms: O_2  and  C_11 
REMARK    3  A    between atoms: O_3  and  C_17 
REMARK    4  A    between atoms: C_4  and  C_7 
REMARK    5  A    between atoms: C_5  and  C_10 
ROOT
HETATM    1  O   LIG     1       4.785  19.391  18.212  1.00  0.00    -0.356 OA
HETATM    2  C   LIG     1       4.943  20.736  18.658  1.00  0.00     0.210 C 
ENDROOT
BRANCH   1   3
HETATM    3  C   LIG     1       3.506  18.902  18.204  1.00  0.00     0.071 A 
HETATM    4  C   LIG     1       3.091  17.729  18.840  1.00  0.00     0.048 A 
HETATM    5  C   LIG     1       1.754  17.311  18.784  1.00  0.00    -0.031 A 
HETATM    6  C   LIG     1       0.833  18.076  18.064  1.00  0.00     0.048 A 
HETATM    7  C   LIG     1       1.250  19.241  17.427  1.00  0.00     0.069 A 
HETATM    8  C   LIG     1       2.577  19.660  17.491  1.00  0.00     0.073 A 
BRANCH   5   9
HETATM    9  C   LIG     1       1.417  16.048  19.452  1.00  0.00     0.012 C 
HETATM   10  C   LIG     1       0.388  15.251  19.122  1.00  0.00     0.012 C 
BRANCH  10  11
HETATM   11  C   LIG     1       0.061  14.018  19.851  1.00  0.00    -0.036 A 
HETATM   12  C   LIG     1      -0.448  12.923  19.134  1.00  0.00     0.014 A 
HETATM   13  C   LIG     1      -0.795  11.745  19.796  1.00  0.00     0.037 A 
HETATM   14  C   LIG     1      -0.646  11.654  21.173  1.00  0.00     0.065 A 
HETATM   15  C   LIG     1      -0.160  12.731  21.908  1.00  0.00     0.037 A 
HETATM   16  C   LIG     1       0.182  13.911  21.245  1.00  0.00     0.014 A 
BRANCH  14  17
HETATM   17  O   LIG     1      -0.996  10.484  21.778  1.00  0.00    -0.361 OA
HETATM   18  H   LIG     1      -1.798  10.635  22.303  1.00  0.00     0.217 HD
ENDBRANCH  14  17
ENDBRANCH  10  11
ENDBRANCH   5   9
BRANCH   7  19
HETATM   19  O   LIG     1       0.313  19.953  16.734  1.00  0.00    -0.361 OA
HETATM   20  H   LIG     1       0.189  19.538  15.864  1.00  0.00     0.217 HD
ENDBRANCH   7  19
ENDBRANCH   1   3
TORSDOF 5
ENDMDL
MODEL 6
REMARK VINA RESULT:      -8.6      1.194      2.693
REMARK  5 active torsions:
REMARK  status: ('A' for Active; 'I' for Inactive)
REMARK    1  A    between atoms: O_1  and  C_9 
REMARK    2  A    between atoms: O_2  and  C_11 
REMARK    3  A    between atoms: O_3  and  C_17 
REMARK    4  A    between atoms: C_4  and  C_7 
REMARK    5  A    between atoms: C_5  and  C_10 
ROOT
HETATM    1  O   LIG     1       0.403  12.927  20.761  1.00  0.00    -0.356 OA
HETATM    2  C   LIG     1      -0.563  11.932  21.089  1.00  0.00     0.210 C 
ENDROOT
BRANCH   1   3
HETATM    3  C   LIG     1       0.102  13.734  19.696  1.00  0.00     0.071 A 
HETATM    4  C   LIG     1       0.697  14.970  19.432  1.00  0.00     0.048 A 
HETATM    5  C   LIG     1       0.331  15.724  18.309  1.00  0.00    -0.031 A 
HETATM    6  C   LIG     1      -0.660  15.231  17.454  1.00  0.00     0.048 A 
HETATM    7  C   LIG     1      -1.255  14.002  17.723  1.00  0.00     0.069 A 
HETATM    8  C   LIG     1      -0.883  13.250  18.834  1.00  0.00     0.073 A 
BRANCH   5   9
HETATM    9  C   LIG     1       0.984  17.026  18.131  1.00  0.00     0.012 C 
HETATM   10  C   LIG     1       2.273  17.286  18.405  1.00  0.00     0.012 C 
BRANCH  10  11
HETATM   11  C   LIG     1       2.872  18.620  18.255  1.00  0.00    -0.036 A 
HETATM   12  C   LIG     1       4.166  18.840  18.752  1.00  0.00     0.014 A 
HETATM   13  C   LIG     1       4.758  20.100  18.653  1.00  0.00     0.037 A 
HETATM   14  C   LIG     1       4.060  21.148  18.066  1.00  0.00     0.065 A 
HETATM   15  C   LIG     1       2.770  20.959  17.581  1.00  0.00     0.037 A 
HETATM   16  C   LIG     1       2.178  19.699  17.686  1.00  0.00     0.014 A 
BRANCH  14  17
HETATM   17  O   LIG     1       4.677  22.360  17.988  1.00  0.00    -0.361 OA
HETATM   18  H   LIG     1       3.999  23.054  18.023  1.00  0.00     0.217 HD
ENDBRANCH  14  17
ENDBRANCH  10  11
ENDBRANCH   5   9
BRANCH   7  19
HETATM   19  O   LIG     1      -2.219  13.565  16.860  1.00  0.00    -0.361 OA
HETATM   20  H   LIG     1      -3.083  13.634  17.299  1.00  0.00     0.217 HD
ENDBRANCH   7  19
ENDBRANCH   1   3
TORSDOF 5
ENDMDL
MODEL 7
REMARK VINA RESULT:      -8.2      1.307      1.943
REMARK  5 active torsions:
REMARK  status: ('A' for Active; 'I' for Inactive)
REMARK    1  A    between atoms: O_1  and  C_9 
REMARK    2  A    between atoms: O_2  and  C_11 
REMARK    3  A    between atoms: O_3  and  C_17 
REMARK    4  A    between atoms: C_4  and  C_7 
REMARK    5  A    between atoms: C_5  and  C_10 
ROOT
HETATM    1  O   LIG     1      -1.906  15.145  15.886  1.00  0.00    -0.356 OA
HETATM    2  C   LIG     1      -2.710  13.976  15.750  1.00  0.00     0.210 C 
ENDROOT
BRANCH   1   3
HETATM    3  C   LIG     1      -1.055  15.173  16.959  1.00  0.00     0.071 A 
HETATM    4  C   LIG     1      -0.128  16.183  17.223  1.00  0.00     0.048 A 
HETATM    5  C   LIG     1       0.697  16.131  18.355  1.00  0.00    -0.031 A 
HETATM    6  C   LIG     1       0.595  15.036  19.219  1.00  0.00     0.048 A 
HETATM    7  C   LIG     1      -0.327  14.028  18.950  1.00  0.00     0.069 A 
HETATM    8  C   LIG     1      -1.152  14.086  17.830  1.00  0.00     0.073 A 
BRANCH   5   9
HETATM    9  C   LIG     1       1.665  17.219  18.532  1.00  0.00     0.012 C 
HETATM   10  C   LIG     1       1.666  18.371  17.842  1.00  0.00     0.012 C 
BRANCH  10  11
HETATM   11  C   LIG     1       2.686  19.414  18.022  1.00  0.00    -0.036 A 
HETATM   12  C   LIG     1       2.404  20.718  17.583  1.00  0.00     0.014 A 
HETATM   13  C   LIG     1       3.357  21.729  17.712  1.00  0.00     0.037 A 
HETATM   14  C   LIG     1       4.597  21.444  18.270  1.00  0.00     0.065 A 
HETATM   15  C   LIG     1       4.906  20.156  18.696  1.00  0.00     0.037 A 
HETATM   16  C   LIG     1       3.952  19.145  18.561  1.00  0.00     0.014 A 
BRANCH  14  17
HETATM   17  O   LIG     1       5.496  22.461  18.378  1.00  0.00    -0.361 OA
HETATM   18  H   LIG     1       6.392  22.089  18.331  1.00  0.00     0.217 HD
ENDBRANCH  14  17
ENDBRANCH  10  11
ENDBRANCH   5   9
BRANCH   7  19
HETATM   19  O   LIG     1      -0.386  12.978  19.822  1.00  0.00    -0.361 OA
HETATM   20  H   LIG     1      -0.927  12.275  19.426  1.00  0.00     0.217 HD
ENDBRANCH   7  19
ENDBRANCH   1   3
TORSDOF 5
ENDMDL
MODEL 8
REMARK VINA RESULT:      -8.2      3.326      5.681
REMARK  5 active torsions:
REMARK  status: ('A' for Active; 'I' for Inactive)
REMARK    1  A    between atoms: O_1  and  C_9 
REMARK    2  A    between atoms: O_2  and  C_11 
REMARK    3  A    between atoms: O_3  and  C_17 
REMARK    4  A    between atoms: C_4  and  C_7 
REMARK    5  A    between atoms: C_5  and  C_10 
ROOT
HETATM    1  O   LIG     1       2.314  16.085  19.997  1.00  0.00    -0.356 OA
HETATM    2  C   LIG     1       1.165  15.272  19.774  1.00  0.00     0.210 C 
ENDROOT
BRANCH   1   3
HETATM    3  C   LIG     1       2.406  17.224  19.242  1.00  0.00     0.071 A 
HETATM    4  C   LIG     1       3.506  18.084  19.215  1.00  0.00     0.048 A 
HETATM    5  C   LIG     1       3.513  19.225  18.402  1.00  0.00    -0.031 A 
HETATM    6  C   LIG     1       2.388  19.509  17.621  1.00  0.00     0.048 A 
HETATM    7  C   LIG     1       1.291  18.653  17.654  1.00  0.00     0.069 A 
HETATM    8  C   LIG     1       1.290  17.514  18.456  1.00  0.00     0.073 A 
BRANCH   5   9
HETATM    9  C   LIG     1       4.698  20.088  18.465  1.00  0.00     0.012 C 
HETATM   10  C   LIG     1       5.010  20.896  19.491  1.00  0.00     0.012 C 
BRANCH  10  11
HETATM   11  C   LIG     1       6.185  21.779  19.490  1.00  0.00    -0.036 A 
HETATM   12  C   LIG     1       6.544  22.430  20.681  1.00  0.00     0.014 A 
HETATM   13  C   LIG     1       7.637  23.297  20.711  1.00  0.00     0.037 A 
HETATM   14  C   LIG     1       8.371  23.526  19.555  1.00  0.00     0.065 A 
HETATM   15  C   LIG     1       8.026  22.906  18.359  1.00  0.00     0.037 A 
HETATM   16  C   LIG     1       6.929  22.043  18.329  1.00  0.00     0.014 A 
BRANCH  14  17
HETATM   17  O   LIG     1       9.432  24.378  19.631  1.00  0.00    -0.361 OA
HETATM   18  H   LIG     1       9.209  25.192  19.151  1.00  0.00     0.217 HD
ENDBRANCH  14  17
ENDBRANCH  10  11
ENDBRANCH   5   9
BRANCH   7  19
HETATM   19  O   LIG     1       0.216  18.975  16.876  1.00  0.00    -0.361 OA
HETATM   20  H   LIG     1       0.065  18.256  16.241  1.00  0.00     0.217 HD
ENDBRANCH   7  19
ENDBRANCH   1   3
TORSDOF 5
ENDMDL
MODEL 9
REMARK VINA RESULT:      -8.2      1.378      7.447
REMARK  5 active torsions:
REMARK  status: ('A' for Active; 'I' for Inactive)
REMARK    1  A    between atoms: O_1  and  C_9 
REMARK    2  A    between atoms: O_2  and  C_11 
REMARK    3  A    between atoms: O_3  and  C_17 
REMARK    4  A    between atoms: C_4  and  C_7 
REMARK    5  A    between atoms: C_5  and  C_10 
ROOT
HETATM    1  O   LIG     1       2.844  21.560  17.049  1.00  0.00    -0.356 OA
HETATM    2  C   LIG     1       2.981  22.944  17.360  1.00  0.00     0.210 C 
ENDROOT
BRANCH   1   3
HETATM    3  C   LIG     1       3.263  20.679  18.011  1.00  0.00     0.071 A 
HETATM    4  C   LIG     1       2.737  19.402  18.214  1.00  0.00     0.048 A 
HETATM    5  C   LIG     1       3.237  18.565  19.221  1.00  0.00    -0.031 A 
HETATM    6  C   LIG     1       4.268  19.033  20.041  1.00  0.00     0.048 A 
HETATM    7  C   LIG     1       4.787  20.308  19.840  1.00  0.00     0.069 A 
HETATM    8  C   LIG     1       4.294  21.135  18.833  1.00  0.00     0.073 A 
BRANCH   5   9
HETATM    9  C   LIG     1       2.600  17.253  19.383  1.00  0.00     0.012 C 
HETATM   10  C   LIG     1       1.392  16.918  18.901  1.00  0.00     0.012 C 
BRANCH  10  11
HETATM   11  C   LIG     1       0.773  15.604  19.130  1.00  0.00    -0.036 A 
HETATM   12  C   LIG     1       1.213  14.828  20.213  1.00  0.00     0.014 A 
HETATM   13  C   LIG     1       0.669  13.564  20.446  1.00  0.00     0.037 A 
HETATM   14  C   LIG     1      -0.310  13.065  19.596  1.00  0.00     0.065 A 
HETATM   15  C   LIG     1      -0.750  13.808  18.506  1.00  0.00     0.037 A 
HETATM   16  C   LIG     1      -0.200  15.070  18.272  1.00  0.00     0.014 A 
BRANCH  14  17
HETATM   17  O   LIG     1      -0.815  11.829  19.862  1.00  0.00    -0.361 OA
HETATM   18  H   LIG     1      -1.329  11.533  19.093  1.00  0.00     0.217 HD
ENDBRANCH  14  17
ENDBRANCH  10  11
ENDBRANCH   5   9
BRANCH   7  19
HETATM   19  O   LIG     1       5.791  20.720  20.669  1.00  0.00    -0.361 OA
HETATM   20  H   LIG     1       6.603  20.827  20.145  1.00  0.00     0.217 HD
ENDBRANCH   7  19
ENDBRANCH   1   3
TORSDOF 5
ENDMDL
