MODEL 1
REMARK VINA RESULT:      -9.2      0.000      0.000
REMARK  5 active torsions:
REMARK  status: ('A' for Active; 'I' for Inactive)
REMARK    1  A    between atoms: O_1  and  C_10 
REMARK    2  A    between atoms: O_2  and  C_11 
REMARK    3  A    between atoms: O_3  and  C_17 
REMARK    4  A    between atoms: C_4  and  C_6 
REMARK    5  A    between atoms: C_5  and  C_7 
ROOT
HETATM    1  O   LIG     1      -0.708  17.378  14.665  1.00  0.00    -0.361 OA
HETATM    2  H   LIG     1      -0.304  18.138  14.214  1.00  0.00     0.217 HD
ENDROOT
BRANCH   1   3
HETATM    3  C   LIG     1       0.025  17.099  15.781  1.00  0.00     0.069 A 
HETATM    4  C   LIG     1       0.999  18.019  16.165  1.00  0.00     0.048 A 
HETATM    5  C   LIG     1       1.777  17.788  17.308  1.00  0.00    -0.031 A 
HETATM    6  C   LIG     1       1.575  16.607  18.036  1.00  0.00     0.048 A 
HETATM    7  C   LIG     1       0.596  15.698  17.635  1.00  0.00     0.069 A 
HETATM    8  C   LIG     1      -0.186  15.936  16.511  1.00  0.00     0.073 A 
BRANCH   5   9
HETATM    9  C   LIG     1       2.834  18.715  17.738  1.00  0.00     0.012 C 
HETATM   10  C   LIG     1       3.567  19.460  16.894  1.00  0.00     0.012 C 
BRANCH  10  11
HETATM   11  C   LIG     1       4.608  20.406  17.322  1.00  0.00    -0.036 A 
HETATM   12  C   LIG     1       5.239  20.203  18.556  1.00  0.00     0.014 A 
HETATM   13  C   LIG     1       6.216  21.092  19.011  1.00  0.00     0.037 A 
HETATM   14  C   LIG     1       6.557  22.194  18.239  1.00  0.00     0.065 A 
HETATM   15  C   LIG     1       5.932  22.427  17.019  1.00  0.00     0.037 A 
HETATM   16  C   LIG     1       4.955  21.536  16.565  1.00  0.00     0.014 A 
BRANCH  14  17
HETATM   17  O   LIG     1       7.515  23.036  18.720  1.00  0.00    -0.361 OA
HETATM   18  H   LIG     1       7.434  23.078  19.687  1.00  0.00     0.217 HD
ENDBRANCH  14  17
ENDBRANCH  10  11
ENDBRANCH   5   9
BRANCH   7  19
HETATM   19  O   LIG     1       0.372  14.545  18.329  1.00  0.00    -0.361 OA
HETATM   20  H   LIG     1      -0.553  14.537  18.630  1.00  0.00     0.217 HD
ENDBRANCH   7  19
ENDBRANCH   1   3
TORSDOF 5
ENDMDL
MODEL 2
REMARK VINA RESULT:      -9.2      0.123      2.008
REMARK  5 active torsions:
REMARK  status: ('A' for Active; 'I' for Inactive)
REMARK    1  A    between atoms: O_1  and  C_10 
REMARK    2  A    between atoms: O_2  and  C_11 
REMARK    3  A    between atoms: O_3  and  C_17 
REMARK    4  A    between atoms: C_4  and  C_6 
REMARK    5  A    between atoms: C_5  and  C_7 
ROOT
HETATM    1  O   LIG     1       0.312  14.637  18.428  1.00  0.00    -0.361 OA
HETATM    2  H   LIG     1       0.771  13.884  18.022  1.00  0.00     0.217 HD
ENDROOT
BRANCH   1   3
HETATM    3  C   LIG     1       0.539  15.745  17.664  1.00  0.00     0.069 A 
HETATM    4  C   LIG     1       1.549  16.616  18.069  1.00  0.00     0.048 A 
HETATM    5  C   LIG     1       1.831  17.766  17.319  1.00  0.00    -0.031 A 
HETATM    6  C   LIG     1       1.063  18.034  16.176  1.00  0.00     0.048 A 
HETATM    7  C   LIG     1       0.057  17.150  15.788  1.00  0.00     0.069 A 
HETATM    8  C   LIG     1      -0.212  16.002  16.524  1.00  0.00     0.073 A 
BRANCH   5   9
HETATM    9  C   LIG     1       2.868  18.729  17.719  1.00  0.00     0.012 C 
HETATM   10  C   LIG     1       3.558  19.490  16.854  1.00  0.00     0.012 C 
BRANCH  10  11
HETATM   11  C   LIG     1       4.578  20.472  17.253  1.00  0.00    -0.036 A 
HETATM   12  C   LIG     1       5.237  20.302  18.477  1.00  0.00     0.014 A 
HETATM   13  C   LIG     1       6.194  21.225  18.905  1.00  0.00     0.037 A 
HETATM   14  C   LIG     1       6.487  22.328  18.115  1.00  0.00     0.065 A 
HETATM   15  C   LIG     1       5.834  22.529  16.904  1.00  0.00     0.037 A 
HETATM   16  C   LIG     1       4.876  21.603  16.478  1.00  0.00     0.014 A 
BRANCH  14  17
HETATM   17  O   LIG     1       7.428  23.205  18.568  1.00  0.00    -0.361 OA
HETATM   18  H   LIG     1       7.055  24.101  18.540  1.00  0.00     0.217 HD
ENDBRANCH  14  17
ENDBRANCH  10  11
ENDBRANCH   5   9
BRANCH   7  19
HETATM   19  O   LIG     1      -0.700  17.380  14.677  1.00  0.00    -0.361 OA
HETATM   20  H   LIG     1      -1.619  17.126  14.867  1.00  0.00     0.217 HD
ENDBRANCH   7  19
ENDBRANCH   1   3
TORSDOF 5
ENDMDL
MODEL 3
REMARK VINA RESULT:      -8.9      1.522      2.854
REMARK  5 active torsions:
REMARK  status: ('A' for Active; 'I' for Inactive)
REMARK    1  A    between atoms: O_1  and  C_10 
REMARK    2  A    between atoms: O_2  and  C_11 
REMARK    3  A    between atoms: O_3  and  C_17 
REMARK    4  A    between atoms: C_4  and  C_6 
REMARK    5  A    between atoms: C_5  and  C_7 
ROOT
HETATM    1  O   LIG     1       0.375  14.673  18.409  1.00  0.00    -0.361 OA
HETATM    2  H   LIG     1      -0.086  13.833  18.254  1.00  0.00     0.217 HD
ENDROOT
BRANCH   1   3
HETATM    3  C   LIG     1       0.265  15.440  17.285  1.00  0.00     0.069 A 
HETATM    4  C   LIG     1       0.938  16.661  17.265  1.00  0.00     0.048 A 
HETATM    5  C   LIG     1       0.867  17.486  16.134  1.00  0.00    -0.031 A 
HETATM    6  C   LIG     1       0.087  17.074  15.043  1.00  0.00     0.048 A 
HETATM    7  C   LIG     1      -0.579  15.850  15.084  1.00  0.00     0.069 A 
HETATM    8  C   LIG     1      -0.495  15.024  16.199  1.00  0.00     0.073 A 
BRANCH   5   9
HETATM    9  C   LIG     1       1.536  18.794  16.074  1.00  0.00     0.012 C 
HETATM   10  C   LIG     1       2.539  19.161  16.889  1.00  0.00     0.012 C 
BRANCH  10  11
HETATM   11  C   LIG     1       3.227  20.458  16.815  1.00  0.00    -0.036 A 
HETATM   12  C   LIG     1       2.474  21.608  16.543  1.00  0.00     0.014 A 
HETATM   13  C   LIG     1       3.092  22.856  16.441  1.00  0.00     0.037 A 
HETATM   14  C   LIG     1       4.467  22.959  16.598  1.00  0.00     0.065 A 
HETATM   15  C   LIG     1       5.239  21.830  16.850  1.00  0.00     0.037 A 
HETATM   16  C   LIG     1       4.618  20.581  16.953  1.00  0.00     0.014 A 
BRANCH  14  17
HETATM   17  O   LIG     1       5.030  24.195  16.490  1.00  0.00    -0.361 OA
HETATM   18  H   LIG     1       5.933  24.157  16.847  1.00  0.00     0.217 HD
ENDBRANCH  14  17
ENDBRANCH  10  11
ENDBRANCH   5   9
BRANCH   7  19
HETATM   19  O   LIG     1      -1.337  15.419  14.035  1.00  0.00    -0.361 OA
HETATM   20  H   LIG     1      -2.246  15.268  14.347  1.00  0.00     0.217 HD
ENDBRANCH   7  19
ENDBRANCH   1   3
TORSDOF 5
ENDMDL
MODEL 4
REMARK VINA RESULT:      -8.6      1.491      7.528
REMARK  5 active torsions:
REMARK  status: ('A' for Active; 'I' for Inactive)
REMARK    1  A    between atoms: O_1  and  C_10 
REMARK    2  A    between atoms: O_2  and  C_11 
REMARK    3  A    between atoms: O_3  and  C_17 
REMARK    4  A    between atoms: C_4  and  C_6 
REMARK    5  A    between atoms: C_5  and  C_7 
ROOT
HETATM    1  O   LIG     1       6.254  19.546  20.851  1.00  0.00    -0.361 OA
HETATM    2  H   LIG     1       6.019  18.605  20.908  1.00  0.00     0.217 HD
ENDROOT
BRANCH   1   3
HETATM    3  C   LIG     1       5.812  20.030  19.654  1.00  0.00     0.069 A 
HETATM    4  C   LIG     1       4.872  19.274  18.956  1.00  0.00     0.048 A 
HETATM    5  C   LIG     1       4.377  19.726  17.725  1.00  0.00    -0.031 A 
HETATM    6  C   LIG     1       4.866  20.932  17.200  1.00  0.00     0.048 A 
HETATM    7  C   LIG     1       5.807  21.673  17.914  1.00  0.00     0.069 A 
HETATM    8  C   LIG     1       6.285  21.232  19.143  1.00  0.00     0.073 A 
BRANCH   5   9
HETATM    9  C   LIG     1       3.405  18.952  16.938  1.00  0.00     0.012 C 
HETATM   10  C   LIG     1       2.310  18.375  17.458  1.00  0.00     0.012 C 
BRANCH  10  11
HETATM   11  C   LIG     1       1.323  17.622  16.670  1.00  0.00    -0.036 A 
HETATM   12  C   LIG     1       0.850  18.175  15.473  1.00  0.00     0.014 A 
HETATM   13  C   LIG     1      -0.106  17.504  14.707  1.00  0.00     0.037 A 
HETATM   14  C   LIG     1      -0.602  16.282  15.141  1.00  0.00     0.065 A 
HETATM   15  C   LIG     1      -0.161  15.721  16.334  1.00  0.00     0.037 A 
HETATM   16  C   LIG     1       0.796  16.394  17.100  1.00  0.00     0.014 A 
BRANCH  14  17
HETATM   17  O   LIG     1      -1.533  15.660  14.364  1.00  0.00    -0.361 OA
HETATM   18  H   LIG     1      -1.544  16.087  13.492  1.00  0.00     0.217 HD
ENDBRANCH  14  17
ENDBRANCH  10  11
ENDBRANCH   5   9
BRANCH   7  19
HETATM   19  O   LIG     1       6.293  22.853  17.434  1.00  0.00    -0.361 OA
HETATM   20  H   LIG     1       5.547  23.402  17.138  1.00  0.00     0.217 HD
ENDBRANCH   7  19
ENDBRANCH   1   3
TORSDOF 5
ENDMDL
MODEL 5
REMARK VINA RESULT:      -8.6      1.606      2.277
REMARK  5 active torsions:
REMARK  status: ('A' for Active; 'I' for Inactive)
REMARK    1  A    between atoms: O_1  and  C_10 
REMARK    2  A    between atoms: O_2  and  C_11 
REMARK    3  A    between atoms: O_3  and  C_17 
REMARK    4  A    between atoms: C_4  and  C_6 
REMARK    5  A    between atoms: C_5  and  C_7 
ROOT
HETATM    1  O   LIG     1      -1.192  15.234  14.511  1.00  0.00    -0.361 OA
HETATM    2  H   LIG     1      -0.588  15.354  13.759  1.00  0.00     0.217 HD
ENDROOT
BRANCH   1   3
HETATM    3  C   LIG     1      -0.489  15.418  15.665  1.00  0.00     0.069 A 
HETATM    4  C   LIG     1       0.229  16.604  15.805  1.00  0.00     0.048 A 
HETATM    5  C   LIG     1       0.964  16.850  16.973  1.00  0.00    -0.031 A 
HETATM    6  C   LIG     1       0.985  15.872  17.978  1.00  0.00     0.048 A 
HETATM    7  C   LIG     1       0.261  14.692  17.818  1.00  0.00     0.069 A 
HETATM    8  C   LIG     1      -0.481  14.456  16.667  1.00  0.00     0.073 A 
BRANCH   5   9
HETATM    9  C   LIG     1       1.759  18.074  17.157  1.00  0.00     0.012 C 
HETATM   10  C   LIG     1       2.047  18.936  16.168  1.00  0.00     0.012 C 
BRANCH  10  11
HETATM   11  C   LIG     1       2.821  20.173  16.353  1.00  0.00    -0.036 A 
HETATM   12  C   LIG     1       2.181  21.405  16.162  1.00  0.00     0.014 A 
HETATM   13  C   LIG     1       2.885  22.603  16.305  1.00  0.00     0.037 A 
HETATM   14  C   LIG     1       4.235  22.573  16.626  1.00  0.00     0.065 A 
HETATM   15  C   LIG     1       4.897  21.363  16.802  1.00  0.00     0.037 A 
HETATM   16  C   LIG     1       4.190  20.165  16.660  1.00  0.00     0.014 A 
BRANCH  14  17
HETATM   17  O   LIG     1       4.885  23.764  16.755  1.00  0.00    -0.361 OA
HETATM   18  H   LIG     1       5.370  23.763  17.596  1.00  0.00     0.217 HD
ENDBRANCH  14  17
ENDBRANCH  10  11
ENDBRANCH   5   9
BRANCH   7  19
HETATM   19  O   LIG     1       0.255  13.727  18.782  1.00  0.00    -0.361 OA
HETATM   20  H   LIG     1       0.266  12.855  18.352  1.00  0.00     0.217 HD
ENDBRANCH   7  19
ENDBRANCH   1   3
TORSDOF 5
ENDMDL
MODEL 6
REMARK VINA RESULT:      -8.3      1.213      7.274
REMARK  5 active torsions:
REMARK  status: ('A' for Active; 'I' for Inactive)
REMARK    1  A    between atoms: O_1  and  C_10 
REMARK    2  A    between atoms: O_2  and  C_11 
REMARK    3  A    between atoms: O_3  and  C_17 
REMARK    4  A    between atoms: C_4  and  C_6 
REMARK    5  A    between atoms: C_5  and  C_7 
ROOT
HETATM    1  O   LIG     1       5.250  24.118  16.166  1.00  0.00    -0.361 OA
HETATM    2  H   LIG     1       4.323  24.379  16.294  1.00  0.00     0.217 HD
ENDROOT
BRANCH   1   3
HETATM    3  C   LIG     1       5.484  22.986  16.890  1.00  0.00     0.069 A 
HETATM    4  C   LIG     1       4.664  21.884  16.655  1.00  0.00     0.048 A 
HETATM    5  C   LIG     1       4.863  20.692  17.365  1.00  0.00    -0.031 A 
HETATM    6  C   LIG     1       5.880  20.641  18.330  1.00  0.00     0.048 A 
HETATM    7  C   LIG     1       6.689  21.755  18.551  1.00  0.00     0.069 A 
HETATM    8  C   LIG     1       6.501  22.931  17.835  1.00  0.00     0.073 A 
BRANCH   5   9
HETATM    9  C   LIG     1       4.008  19.511  17.172  1.00  0.00     0.012 C 
HETATM   10  C   LIG     1       2.666  19.541  17.226  1.00  0.00     0.012 C 
BRANCH  10  11
HETATM   11  C   LIG     1       1.807  18.368  17.010  1.00  0.00    -0.036 A 
HETATM   12  C   LIG     1       1.849  17.319  17.938  1.00  0.00     0.014 A 
HETATM   13  C   LIG     1       1.067  16.176  17.757  1.00  0.00     0.037 A 
HETATM   14  C   LIG     1       0.249  16.071  16.640  1.00  0.00     0.065 A 
HETATM   15  C   LIG     1       0.204  17.090  15.695  1.00  0.00     0.037 A 
HETATM   16  C   LIG     1       0.987  18.235  15.879  1.00  0.00     0.014 A 
BRANCH  14  17
HETATM   17  O   LIG     1      -0.497  14.939  16.501  1.00  0.00    -0.361 OA
HETATM   18  H   LIG     1       0.029  14.278  16.023  1.00  0.00     0.217 HD
ENDBRANCH  14  17
ENDBRANCH  10  11
ENDBRANCH   5   9
BRANCH   7  19
HETATM   19  O   LIG     1       7.691  21.732  19.476  1.00  0.00    -0.361 OA
HETATM   20  H   LIG     1       7.400  21.204  20.239  1.00  0.00     0.217 HD
ENDBRANCH   7  19
ENDBRANCH   1   3
TORSDOF 5
ENDMDL
MODEL 7
REMARK VINA RESULT:      -8.3      1.252      7.545
REMARK  5 active torsions:
REMARK  status: ('A' for Active; 'I' for Inactive)
REMARK    1  A    between atoms: O_1  and  C_10 
REMARK    2  A    between atoms: O_2  and  C_11 
REMARK    3  A    between atoms: O_3  and  C_17 
REMARK    4  A    between atoms: C_4  and  C_6 
REMARK    5  A    between atoms: C_5  and  C_7 
ROOT
HETATM    1  O   LIG     1       7.573  21.734  19.502  1.00  0.00    -0.361 OA
HETATM    2  H   LIG     1       8.102  20.939  19.325  1.00  0.00     0.217 HD
ENDROOT
BRANCH   1   3
HETATM    3  C   LIG     1       6.611  21.836  18.539  1.00  0.00     0.069 A 
HETATM    4  C   LIG     1       5.809  20.721  18.304  1.00  0.00     0.048 A 
HETATM    5  C   LIG     1       4.800  20.771  17.332  1.00  0.00    -0.031 A 
HETATM    6  C   LIG     1       4.636  21.948  16.587  1.00  0.00     0.048 A 
HETATM    7  C   LIG     1       5.449  23.052  16.837  1.00  0.00     0.069 A 
HETATM    8  C   LIG     1       6.439  23.008  17.813  1.00  0.00     0.073 A 
BRANCH   5   9
HETATM    9  C   LIG     1       3.945  19.614  17.028  1.00  0.00     0.012 C 
HETATM   10  C   LIG     1       2.641  19.543  17.341  1.00  0.00     0.012 C 
BRANCH  10  11
HETATM   11  C   LIG     1       1.778  18.397  17.016  1.00  0.00    -0.036 A 
HETATM   12  C   LIG     1       1.763  17.296  17.882  1.00  0.00     0.014 A 
HETATM   13  C   LIG     1       0.975  16.178  17.598  1.00  0.00     0.037 A 
HETATM   14  C   LIG     1       0.209  16.151  16.440  1.00  0.00     0.065 A 
HETATM   15  C   LIG     1       0.221  17.224  15.556  1.00  0.00     0.037 A 
HETATM   16  C   LIG     1       1.010  18.343  15.843  1.00  0.00     0.014 A 
BRANCH  14  17
HETATM   17  O   LIG     1      -0.545  15.041  16.201  1.00  0.00    -0.361 OA
HETATM   18  H   LIG     1      -0.855  14.688  17.051  1.00  0.00     0.217 HD
ENDBRANCH  14  17
ENDBRANCH  10  11
ENDBRANCH   5   9
BRANCH   7  19
HETATM   19  O   LIG     1       5.307  24.213  16.136  1.00  0.00    -0.361 OA
HETATM   20  H   LIG     1       5.349  24.011  15.185  1.00  0.00     0.217 HD
ENDBRANCH   7  19
ENDBRANCH   1   3
TORSDOF 5
ENDMDL
MODEL 8
REMARK VINA RESULT:      -8.1      1.898      3.190
REMARK  5 active torsions:
REMARK  status: ('A' for Active; 'I' for Inactive)
REMARK    1  A    between atoms: O_1  and  C_10 
REMARK    2  A    between atoms: O_2  and  C_11 
REMARK    3  A    between atoms: O_3  and  C_17 
REMARK    4  A    between atoms: C_4  and  C_6 
REMARK    5  A    between atoms: C_5  and  C_7 
ROOT
HETATM    1  O   LIG     1       1.204  18.948  15.227  1.00  0.00    -0.361 OA
HETATM    2  H   LIG     1       0.300  18.723  15.503  1.00  0.00     0.217 HD
ENDROOT
BRANCH   1   3
HETATM    3  C   LIG     1       2.021  18.872  16.317  1.00  0.00     0.069 A 
HETATM    4  C   LIG     1       3.083  19.771  16.396  1.00  0.00     0.048 A 
HETATM    5  C   LIG     1       3.949  19.744  17.497  1.00  0.00    -0.031 A 
HETATM    6  C   LIG     1       3.745  18.781  18.496  1.00  0.00     0.048 A 
HETATM    7  C   LIG     1       2.677  17.890  18.398  1.00  0.00     0.069 A 
HETATM    8  C   LIG     1       1.808  17.928  17.314  1.00  0.00     0.073 A 
BRANCH   5   9
HETATM    9  C   LIG     1       5.100  20.653  17.613  1.00  0.00     0.012 C 
HETATM   10  C   LIG     1       5.799  20.836  18.745  1.00  0.00     0.012 C 
BRANCH  10  11
HETATM   11  C   LIG     1       6.964  21.726  18.858  1.00  0.00    -0.036 A 
HETATM   12  C   LIG     1       6.844  23.054  18.430  1.00  0.00     0.014 A 
HETATM   13  C   LIG     1       7.933  23.926  18.498  1.00  0.00     0.037 A 
HETATM   14  C   LIG     1       9.152  23.468  18.982  1.00  0.00     0.065 A 
HETATM   15  C   LIG     1       9.301  22.149  19.396  1.00  0.00     0.037 A 
HETATM   16  C   LIG     1       8.209  21.279  19.328  1.00  0.00     0.014 A 
BRANCH  14  17
HETATM   17  O   LIG     1      10.189  24.351  19.032  1.00  0.00    -0.361 OA
HETATM   18  H   LIG     1      10.904  24.020  18.463  1.00  0.00     0.217 HD
ENDBRANCH  14  17
ENDBRANCH  10  11
ENDBRANCH   5   9
BRANCH   7  19
HETATM   19  O   LIG     1       2.447  16.949  19.358  1.00  0.00    -0.361 OA
HETATM   20  H   LIG     1       2.786  17.280  20.208  1.00  0.00     0.217 HD
ENDBRANCH   7  19
ENDBRANCH   1   3
TORSDOF 5
ENDMDL
MODEL 9
REMARK VINA RESULT:      -8.1      1.989      3.729
REMARK  5 active torsions:
REMARK  status: ('A' for Active; 'I' for Inactive)
REMARK    1  A    between atoms: O_1  and  C_10 
REMARK    2  A    between atoms: O_2  and  C_11 
REMARK    3  A    between atoms: O_3  and  C_17 
REMARK    4  A    between atoms: C_4  and  C_6 
REMARK    5  A    between atoms: C_5  and  C_7 
ROOT
HETATM    1  O   LIG     1       2.689  16.910  19.109  1.00  0.00    -0.361 OA
HETATM    2  H   LIG     1       2.765  16.078  18.614  1.00  0.00     0.217 HD
ENDROOT
BRANCH   1   3
HETATM    3  C   LIG     1       2.779  17.948  18.227  1.00  0.00     0.069 A 
HETATM    4  C   LIG     1       3.873  18.803  18.341  1.00  0.00     0.048 A 
HETATM    5  C   LIG     1       4.021  19.881  17.458  1.00  0.00    -0.031 A 
HETATM    6  C   LIG     1       3.037  20.096  16.482  1.00  0.00     0.048 A 
HETATM    7  C   LIG     1       1.949  19.229  16.385  1.00  0.00     0.069 A 
HETATM    8  C   LIG     1       1.812  18.151  17.251  1.00  0.00     0.073 A 
BRANCH   5   9
HETATM    9  C   LIG     1       5.143  20.827  17.554  1.00  0.00     0.012 C 
HETATM   10  C   LIG     1       5.872  21.014  18.667  1.00  0.00     0.012 C 
BRANCH  10  11
HETATM   11  C   LIG     1       7.010  21.940  18.760  1.00  0.00    -0.036 A 
HETATM   12  C   LIG     1       8.240  21.455  19.224  1.00  0.00     0.014 A 
HETATM   13  C   LIG     1       9.339  22.307  19.350  1.00  0.00     0.037 A 
HETATM   14  C   LIG     1       9.210  23.650  19.025  1.00  0.00     0.065 A 
HETATM   15  C   LIG     1       7.996  24.160  18.580  1.00  0.00     0.037 A 
HETATM   16  C   LIG     1       6.896  23.305  18.454  1.00  0.00     0.014 A 
BRANCH  14  17
HETATM   17  O   LIG     1      10.308  24.447  19.163  1.00  0.00    -0.361 OA
HETATM   18  H   LIG     1      10.991  24.144  18.543  1.00  0.00     0.217 HD
ENDBRANCH  14  17
ENDBRANCH  10  11
ENDBRANCH   5   9
BRANCH   7  19
HETATM   19  O   LIG     1       0.981  19.408  15.440  1.00  0.00    -0.361 OA
HETATM   20  H   LIG     1       0.524  18.561  15.297  1.00  0.00     0.217 HD
ENDBRANCH   7  19
ENDBRANCH   1   3
TORSDOF 5
ENDMDL
