MODEL 1
REMARK VINA RESULT:      -9.0      0.000      0.000
REMARK  5 active torsions:
REMARK  status: ('A' for Active; 'I' for Inactive)
REMARK    1  A    between atoms: O_1  and  C_9 
REMARK    2  A    between atoms: O_2  and  C_11 
REMARK    3  A    between atoms: O_3  and  C_17 
REMARK    4  A    between atoms: C_4  and  C_7 
REMARK    5  A    between atoms: C_5  and  C_10 
ROOT
HETATM    1  O   LIG     1       0.369  14.751  18.014  1.00  0.00    -0.356 OA
HETATM    2  C   LIG     1      -0.080  13.699  17.165  1.00  0.00     0.210 C 
ENDROOT
BRANCH   1   3
HETATM    3  C   LIG     1       0.618  15.954  17.408  1.00  0.00     0.071 A 
HETATM    4  C   LIG     1       1.604  16.862  17.800  1.00  0.00     0.048 A 
HETATM    5  C   LIG     1       1.792  18.068  17.111  1.00  0.00    -0.031 A 
HETATM    6  C   LIG     1       0.961  18.366  16.027  1.00  0.00     0.048 A 
HETATM    7  C   LIG     1      -0.024  17.462  15.641  1.00  0.00     0.069 A 
HETATM    8  C   LIG     1      -0.202  16.259  16.322  1.00  0.00     0.073 A 
BRANCH   5   9
HETATM    9  C   LIG     1       2.828  18.976  17.616  1.00  0.00     0.012 C 
HETATM   10  C   LIG     1       3.679  19.677  16.849  1.00  0.00     0.012 C 
BRANCH  10  11
HETATM   11  C   LIG     1       4.734  20.540  17.401  1.00  0.00    -0.036 A 
HETATM   12  C   LIG     1       5.146  21.662  16.664  1.00  0.00     0.014 A 
HETATM   13  C   LIG     1       6.162  22.488  17.143  1.00  0.00     0.037 A 
HETATM   14  C   LIG     1       6.779  22.197  18.353  1.00  0.00     0.065 A 
HETATM   15  C   LIG     1       6.400  21.082  19.093  1.00  0.00     0.037 A 
HETATM   16  C   LIG     1       5.386  20.253  18.610  1.00  0.00     0.014 A 
BRANCH  14  17
HETATM   17  O   LIG     1       7.765  23.033  18.784  1.00  0.00    -0.361 OA
HETATM   18  H   LIG     1       7.422  23.562  19.522  1.00  0.00     0.217 HD
ENDBRANCH  14  17
ENDBRANCH  10  11
ENDBRANCH   5   9
BRANCH   7  19
HETATM   19  O   LIG     1      -0.811  17.800  14.578  1.00  0.00    -0.361 OA
HETATM   20  H   LIG     1      -1.686  17.396  14.698  1.00  0.00     0.217 HD
ENDBRANCH   7  19
ENDBRANCH   1   3
TORSDOF 5
ENDMDL
MODEL 2
REMARK VINA RESULT:      -8.8      0.748      2.181
REMARK  5 active torsions:
REMARK  status: ('A' for Active; 'I' for Inactive)
REMARK    1  A    between atoms: O_1  and  C_9 
REMARK    2  A    between atoms: O_2  and  C_11 
REMARK    3  A    between atoms: O_3  and  C_17 
REMARK    4  A    between atoms: C_4  and  C_7 
REMARK    5  A    between atoms: C_5  and  C_10 
ROOT
HETATM    1  O   LIG     1      -0.575  16.999  14.716  1.00  0.00    -0.356 OA
HETATM    2  C   LIG     1      -1.229  15.799  14.312  1.00  0.00     0.210 C 
ENDROOT
BRANCH   1   3
HETATM    3  C   LIG     1       0.137  16.936  15.885  1.00  0.00     0.071 A 
HETATM    4  C   LIG     1       1.089  17.871  16.297  1.00  0.00     0.048 A 
HETATM    5  C   LIG     1       1.763  17.728  17.517  1.00  0.00    -0.031 A 
HETATM    6  C   LIG     1       1.485  16.617  18.320  1.00  0.00     0.048 A 
HETATM    7  C   LIG     1       0.540  15.683  17.904  1.00  0.00     0.069 A 
HETATM    8  C   LIG     1      -0.136  15.833  16.695  1.00  0.00     0.073 A 
BRANCH   5   9
HETATM    9  C   LIG     1       2.771  18.741  17.851  1.00  0.00     0.012 C 
HETATM   10  C   LIG     1       3.476  19.452  16.956  1.00  0.00     0.012 C 
BRANCH  10  11
HETATM   11  C   LIG     1       4.510  20.424  17.339  1.00  0.00    -0.036 A 
HETATM   12  C   LIG     1       4.787  21.494  16.472  1.00  0.00     0.014 A 
HETATM   13  C   LIG     1       5.780  22.421  16.788  1.00  0.00     0.037 A 
HETATM   14  C   LIG     1       6.508  22.283  17.963  1.00  0.00     0.065 A 
HETATM   15  C   LIG     1       6.264  21.222  18.829  1.00  0.00     0.037 A 
HETATM   16  C   LIG     1       5.273  20.292  18.509  1.00  0.00     0.014 A 
BRANCH  14  17
HETATM   17  O   LIG     1       7.466  23.212  18.233  1.00  0.00    -0.361 OA
HETATM   18  H   LIG     1       7.040  23.990  18.628  1.00  0.00     0.217 HD
ENDBRANCH  14  17
ENDBRANCH  10  11
ENDBRANCH   5   9
BRANCH   7  19
HETATM   19  O   LIG     1       0.306  14.615  18.722  1.00  0.00    -0.361 OA
HETATM   20  H   LIG     1       0.239  14.933  19.637  1.00  0.00     0.217 HD
ENDBRANCH   7  19
ENDBRANCH   1   3
TORSDOF 5
ENDMDL
MODEL 3
REMARK VINA RESULT:      -8.6      2.046      7.597
REMARK  5 active torsions:
REMARK  status: ('A' for Active; 'I' for Inactive)
REMARK    1  A    between atoms: O_1  and  C_9 
REMARK    2  A    between atoms: O_2  and  C_11 
REMARK    3  A    between atoms: O_3  and  C_17 
REMARK    4  A    between atoms: C_4  and  C_7 
REMARK    5  A    between atoms: C_5  and  C_10 
ROOT
HETATM    1  O   LIG     1       6.250  21.734  17.473  1.00  0.00    -0.356 OA
HETATM    2  C   LIG     1       6.573  23.059  17.885  1.00  0.00     0.210 C 
ENDROOT
BRANCH   1   3
HETATM    3  C   LIG     1       4.943  21.507  17.130  1.00  0.00     0.071 A 
HETATM    4  C   LIG     1       4.347  20.248  17.027  1.00  0.00     0.048 A 
HETATM    5  C   LIG     1       2.996  20.114  16.679  1.00  0.00    -0.031 A 
HETATM    6  C   LIG     1       2.246  21.265  16.414  1.00  0.00     0.048 A 
HETATM    7  C   LIG     1       2.845  22.517  16.513  1.00  0.00     0.069 A 
HETATM    8  C   LIG     1       4.185  22.649  16.869  1.00  0.00     0.073 A 
BRANCH   5   9
HETATM    9  C   LIG     1       2.464  18.752  16.560  1.00  0.00     0.012 C 
HETATM   10  C   LIG     1       1.183  18.404  16.759  1.00  0.00     0.012 C 
BRANCH  10  11
HETATM   11  C   LIG     1       0.705  17.017  16.675  1.00  0.00    -0.036 A 
HETATM   12  C   LIG     1      -0.004  16.613  15.532  1.00  0.00     0.014 A 
HETATM   13  C   LIG     1      -0.497  15.312  15.428  1.00  0.00     0.037 A 
HETATM   14  C   LIG     1      -0.294  14.410  16.464  1.00  0.00     0.065 A 
HETATM   15  C   LIG     1       0.390  14.791  17.614  1.00  0.00     0.037 A 
HETATM   16  C   LIG     1       0.878  16.095  17.718  1.00  0.00     0.014 A 
BRANCH  14  17
HETATM   17  O   LIG     1      -0.791  13.150  16.319  1.00  0.00    -0.361 OA
HETATM   18  H   LIG     1      -0.325  12.716  15.586  1.00  0.00     0.217 HD
ENDBRANCH  14  17
ENDBRANCH  10  11
ENDBRANCH   5   9
BRANCH   7  19
HETATM   19  O   LIG     1       2.071  23.610  16.242  1.00  0.00    -0.361 OA
HETATM   20  H   LIG     1       1.691  23.509  15.354  1.00  0.00     0.217 HD
ENDBRANCH   7  19
ENDBRANCH   1   3
TORSDOF 5
ENDMDL
MODEL 4
REMARK VINA RESULT:      -8.5      1.414      7.965
REMARK  5 active torsions:
REMARK  status: ('A' for Active; 'I' for Inactive)
REMARK    1  A    between atoms: O_1  and  C_9 
REMARK    2  A    between atoms: O_2  and  C_11 
REMARK    3  A    between atoms: O_3  and  C_17 
REMARK    4  A    between atoms: C_4  and  C_7 
REMARK    5  A    between atoms: C_5  and  C_10 
ROOT
HETATM    1  O   LIG     1       5.420  24.398  16.147  1.00  0.00    -0.356 OA
HETATM    2  C   LIG     1       4.272  25.176  16.476  1.00  0.00     0.210 C 
ENDROOT
BRANCH   1   3
HETATM    3  C   LIG     1       5.617  23.264  16.889  1.00  0.00     0.071 A 
HETATM    4  C   LIG     1       4.831  22.111  16.819  1.00  0.00     0.048 A 
HETATM    5  C   LIG     1       5.115  20.992  17.613  1.00  0.00    -0.031 A 
HETATM    6  C   LIG     1       6.194  21.047  18.502  1.00  0.00     0.048 A 
HETATM    7  C   LIG     1       6.972  22.199  18.574  1.00  0.00     0.069 A 
HETATM    8  C   LIG     1       6.693  23.306  17.776  1.00  0.00     0.073 A 
BRANCH   5   9
HETATM    9  C   LIG     1       4.215  19.839  17.497  1.00  0.00     0.012 C 
HETATM   10  C   LIG     1       2.982  19.874  16.964  1.00  0.00     0.012 C 
BRANCH  10  11
HETATM   11  C   LIG     1       2.097  18.701  16.912  1.00  0.00    -0.036 A 
HETATM   12  C   LIG     1       2.205  17.727  17.917  1.00  0.00     0.014 A 
HETATM   13  C   LIG     1       1.400  16.587  17.886  1.00  0.00     0.037 A 
HETATM   14  C   LIG     1       0.493  16.408  16.850  1.00  0.00     0.065 A 
HETATM   15  C   LIG     1       0.380  17.351  15.834  1.00  0.00     0.037 A 
HETATM   16  C   LIG     1       1.189  18.489  15.864  1.00  0.00     0.014 A 
BRANCH  14  17
HETATM   17  O   LIG     1      -0.274  15.282  16.861  1.00  0.00    -0.361 OA
HETATM   18  H   LIG     1      -1.155  15.511  17.199  1.00  0.00     0.217 HD
ENDBRANCH  14  17
ENDBRANCH  10  11
ENDBRANCH   5   9
BRANCH   7  19
HETATM   19  O   LIG     1       8.012  22.204  19.459  1.00  0.00    -0.361 OA
HETATM   20  H   LIG     1       7.797  21.607  20.194  1.00  0.00     0.217 HD
ENDBRANCH   7  19
ENDBRANCH   1   3
TORSDOF 5
ENDMDL
MODEL 5
REMARK VINA RESULT:      -8.4      1.318      7.722
REMARK  5 active torsions:
REMARK  status: ('A' for Active; 'I' for Inactive)
REMARK    1  A    between atoms: O_1  and  C_9 
REMARK    2  A    between atoms: O_2  and  C_11 
REMARK    3  A    between atoms: O_3  and  C_17 
REMARK    4  A    between atoms: C_4  and  C_7 
REMARK    5  A    between atoms: C_5  and  C_10 
ROOT
HETATM    1  O   LIG     1       7.865  22.337  19.550  1.00  0.00    -0.356 OA
HETATM    2  C   LIG     1       8.947  21.420  19.409  1.00  0.00     0.210 C 
ENDROOT
BRANCH   1   3
HETATM    3  C   LIG     1       6.860  22.235  18.624  1.00  0.00     0.071 A 
HETATM    4  C   LIG     1       5.998  21.144  18.490  1.00  0.00     0.048 A 
HETATM    5  C   LIG     1       4.991  21.134  17.516  1.00  0.00    -0.031 A 
HETATM    6  C   LIG     1       4.866  22.230  16.657  1.00  0.00     0.048 A 
HETATM    7  C   LIG     1       5.730  23.313  16.789  1.00  0.00     0.069 A 
HETATM    8  C   LIG     1       6.724  23.326  17.764  1.00  0.00     0.073 A 
BRANCH   5   9
HETATM    9  C   LIG     1       4.155  19.931  17.427  1.00  0.00     0.012 C 
HETATM   10  C   LIG     1       2.855  19.918  17.089  1.00  0.00     0.012 C 
BRANCH  10  11
HETATM   11  C   LIG     1       2.046  18.691  17.058  1.00  0.00    -0.036 A 
HETATM   12  C   LIG     1       2.262  17.713  18.042  1.00  0.00     0.014 A 
HETATM   13  C   LIG     1       1.532  16.524  18.029  1.00  0.00     0.037 A 
HETATM   14  C   LIG     1       0.590  16.300  17.033  1.00  0.00     0.065 A 
HETATM   15  C   LIG     1       0.370  17.247  16.038  1.00  0.00     0.037 A 
HETATM   16  C   LIG     1       1.105  18.434  16.049  1.00  0.00     0.014 A 
BRANCH  14  17
HETATM   17  O   LIG     1      -0.101  15.127  17.060  1.00  0.00    -0.361 OA
HETATM   18  H   LIG     1       0.224  14.560  16.342  1.00  0.00     0.217 HD
ENDBRANCH  14  17
ENDBRANCH  10  11
ENDBRANCH   5   9
BRANCH   7  19
HETATM   19  O   LIG     1       5.569  24.358  15.924  1.00  0.00    -0.361 OA
HETATM   20  H   LIG     1       4.640  24.388  15.642  1.00  0.00     0.217 HD
ENDBRANCH   7  19
ENDBRANCH   1   3
TORSDOF 5
ENDMDL
MODEL 6
REMARK VINA RESULT:      -8.2      1.845      3.001
REMARK  5 active torsions:
REMARK  status: ('A' for Active; 'I' for Inactive)
REMARK    1  A    between atoms: O_1  and  C_9 
REMARK    2  A    between atoms: O_2  and  C_11 
REMARK    3  A    between atoms: O_3  and  C_17 
REMARK    4  A    between atoms: C_4  and  C_7 
REMARK    5  A    between atoms: C_5  and  C_10 
ROOT
HETATM    1  O   LIG     1       2.302  17.125  18.357  1.00  0.00    -0.356 OA
HETATM    2  C   LIG     1       1.127  16.416  17.974  1.00  0.00     0.210 C 
ENDROOT
BRANCH   1   3
HETATM    3  C   LIG     1       2.530  18.312  17.714  1.00  0.00     0.071 A 
HETATM    4  C   LIG     1       3.668  19.106  17.872  1.00  0.00     0.048 A 
HETATM    5  C   LIG     1       3.819  20.305  17.162  1.00  0.00    -0.031 A 
HETATM    6  C   LIG     1       2.799  20.714  16.298  1.00  0.00     0.048 A 
HETATM    7  C   LIG     1       1.663  19.924  16.146  1.00  0.00     0.069 A 
HETATM    8  C   LIG     1       1.520  18.728  16.845  1.00  0.00     0.073 A 
BRANCH   5   9
HETATM    9  C   LIG     1       5.032  21.090  17.419  1.00  0.00     0.012 C 
HETATM   10  C   LIG     1       5.805  20.980  18.511  1.00  0.00     0.012 C 
BRANCH  10  11
HETATM   11  C   LIG     1       6.987  21.822  18.746  1.00  0.00    -0.036 A 
HETATM   12  C   LIG     1       6.935  23.178  18.382  1.00  0.00     0.014 A 
HETATM   13  C   LIG     1       8.046  24.002  18.565  1.00  0.00     0.037 A 
HETATM   14  C   LIG     1       9.215  23.479  19.102  1.00  0.00     0.065 A 
HETATM   15  C   LIG     1       9.297  22.136  19.454  1.00  0.00     0.037 A 
HETATM   16  C   LIG     1       8.186  21.311  19.266  1.00  0.00     0.014 A 
BRANCH  14  17
HETATM   17  O   LIG     1      10.274  24.320  19.265  1.00  0.00    -0.361 OA
HETATM   18  H   LIG     1      10.942  24.111  18.592  1.00  0.00     0.217 HD
ENDBRANCH  14  17
ENDBRANCH  10  11
ENDBRANCH   5   9
BRANCH   7  19
HETATM   19  O   LIG     1       0.694  20.368  15.292  1.00  0.00    -0.361 OA
HETATM   20  H   LIG     1       0.210  21.092  15.721  1.00  0.00     0.217 HD
ENDBRANCH   7  19
ENDBRANCH   1   3
TORSDOF 5
ENDMDL
MODEL 7
REMARK VINA RESULT:      -8.2      2.284      4.007
REMARK  5 active torsions:
REMARK  status: ('A' for Active; 'I' for Inactive)
REMARK    1  A    between atoms: O_1  and  C_9 
REMARK    2  A    between atoms: O_2  and  C_11 
REMARK    3  A    between atoms: O_3  and  C_17 
REMARK    4  A    between atoms: C_4  and  C_7 
REMARK    5  A    between atoms: C_5  and  C_10 
ROOT
HETATM    1  O   LIG     1       1.470  19.345  15.364  1.00  0.00    -0.356 OA
HETATM    2  C   LIG     1       0.117  19.644  15.697  1.00  0.00     0.210 C 
ENDROOT
BRANCH   1   3
HETATM    3  C   LIG     1       2.350  19.272  16.410  1.00  0.00     0.071 A 
HETATM    4  C   LIG     1       3.448  20.115  16.598  1.00  0.00     0.048 A 
HETATM    5  C   LIG     1       4.291  19.970  17.708  1.00  0.00    -0.031 A 
HETATM    6  C   LIG     1       4.031  18.950  18.628  1.00  0.00     0.048 A 
HETATM    7  C   LIG     1       2.940  18.108  18.436  1.00  0.00     0.069 A 
HETATM    8  C   LIG     1       2.098  18.260  17.337  1.00  0.00     0.073 A 
BRANCH   5   9
HETATM    9  C   LIG     1       5.439  20.879  17.803  1.00  0.00     0.012 C 
HETATM   10  C   LIG     1       6.138  21.123  18.924  1.00  0.00     0.012 C 
BRANCH  10  11
HETATM   11  C   LIG     1       7.253  22.079  18.982  1.00  0.00    -0.036 A 
HETATM   12  C   LIG     1       6.968  23.454  18.968  1.00  0.00     0.014 A 
HETATM   13  C   LIG     1       8.002  24.391  18.994  1.00  0.00     0.037 A 
HETATM   14  C   LIG     1       9.322  23.964  19.026  1.00  0.00     0.065 A 
HETATM   15  C   LIG     1       9.631  22.607  19.024  1.00  0.00     0.037 A 
HETATM   16  C   LIG     1       8.596  21.671  18.992  1.00  0.00     0.014 A 
BRANCH  14  17
HETATM   17  O   LIG     1      10.299  24.913  19.054  1.00  0.00    -0.361 OA
HETATM   18  H   LIG     1      11.104  24.517  19.426  1.00  0.00     0.217 HD
ENDBRANCH  14  17
ENDBRANCH  10  11
ENDBRANCH   5   9
BRANCH   7  19
HETATM   19  O   LIG     1       2.730  17.125  19.362  1.00  0.00    -0.361 OA
HETATM   20  H   LIG     1       1.918  16.646  19.127  1.00  0.00     0.217 HD
ENDBRANCH   7  19
ENDBRANCH   1   3
TORSDOF 5
ENDMDL
MODEL 8
REMARK VINA RESULT:      -7.7      3.623      9.538
REMARK  5 active torsions:
REMARK  status: ('A' for Active; 'I' for Inactive)
REMARK    1  A    between atoms: O_1  and  C_9 
REMARK    2  A    between atoms: O_2  and  C_11 
REMARK    3  A    between atoms: O_3  and  C_17 
REMARK    4  A    between atoms: C_4  and  C_7 
REMARK    5  A    between atoms: C_5  and  C_10 
ROOT
HETATM    1  O   LIG     1       7.587  27.170  16.951  1.00  0.00    -0.356 OA
HETATM    2  C   LIG     1       6.225  27.022  16.560  1.00  0.00     0.210 C 
ENDROOT
BRANCH   1   3
HETATM    3  C   LIG     1       8.145  26.111  17.616  1.00  0.00     0.071 A 
HETATM    4  C   LIG     1       7.537  24.867  17.799  1.00  0.00     0.048 A 
HETATM    5  C   LIG     1       8.191  23.836  18.488  1.00  0.00    -0.031 A 
HETATM    6  C   LIG     1       9.465  24.073  19.013  1.00  0.00     0.048 A 
HETATM    7  C   LIG     1      10.067  25.315  18.833  1.00  0.00     0.069 A 
HETATM    8  C   LIG     1       9.419  26.335  18.140  1.00  0.00     0.073 A 
BRANCH   5   9
HETATM    9  C   LIG     1       7.461  22.575  18.662  1.00  0.00     0.012 C 
HETATM   10  C   LIG     1       6.303  22.265  18.057  1.00  0.00     0.012 C 
BRANCH  10  11
HETATM   11  C   LIG     1       5.583  21.006  18.299  1.00  0.00    -0.036 A 
HETATM   12  C   LIG     1       5.922  20.237  19.424  1.00  0.00     0.014 A 
HETATM   13  C   LIG     1       5.280  19.024  19.671  1.00  0.00     0.037 A 
HETATM   14  C   LIG     1       4.305  18.566  18.796  1.00  0.00     0.065 A 
HETATM   15  C   LIG     1       3.963  19.301  17.665  1.00  0.00     0.037 A 
HETATM   16  C   LIG     1       4.610  20.513  17.416  1.00  0.00     0.014 A 
BRANCH  14  17
HETATM   17  O   LIG     1       3.702  17.377  19.077  1.00  0.00    -0.361 OA
HETATM   18  H   LIG     1       4.390  16.703  19.202  1.00  0.00     0.217 HD
ENDBRANCH  14  17
ENDBRANCH  10  11
ENDBRANCH   5   9
BRANCH   7  19
HETATM   19  O   LIG     1      11.311  25.497  19.367  1.00  0.00    -0.361 OA
HETATM   20  H   LIG     1      11.900  25.836  18.673  1.00  0.00     0.217 HD
ENDBRANCH   7  19
ENDBRANCH   1   3
TORSDOF 5
ENDMDL
MODEL 9
REMARK VINA RESULT:      -7.7      4.074      8.952
REMARK  5 active torsions:
REMARK  status: ('A' for Active; 'I' for Inactive)
REMARK    1  A    between atoms: O_1  and  C_9 
REMARK    2  A    between atoms: O_2  and  C_11 
REMARK    3  A    between atoms: O_3  and  C_17 
REMARK    4  A    between atoms: C_4  and  C_7 
REMARK    5  A    between atoms: C_5  and  C_10 
ROOT
HETATM    1  O   LIG     1       4.148  27.188  15.025  1.00  0.00    -0.356 OA
HETATM    2  C   LIG     1       4.127  28.610  14.924  1.00  0.00     0.210 C 
ENDROOT
BRANCH   1   3
HETATM    3  C   LIG     1       5.205  26.646  15.707  1.00  0.00     0.071 A 
HETATM    4  C   LIG     1       5.227  25.368  16.272  1.00  0.00     0.048 A 
HETATM    5  C   LIG     1       6.360  24.894  16.945  1.00  0.00    -0.031 A 
HETATM    6  C   LIG     1       7.477  25.727  17.065  1.00  0.00     0.048 A 
HETATM    7  C   LIG     1       7.451  27.001  16.505  1.00  0.00     0.069 A 
HETATM    8  C   LIG     1       6.327  27.467  15.828  1.00  0.00     0.073 A 
BRANCH   5   9
HETATM    9  C   LIG     1       6.279  23.553  17.537  1.00  0.00     0.012 C 
HETATM   10  C   LIG     1       5.502  22.556  17.083  1.00  0.00     0.012 C 
BRANCH  10  11
HETATM   11  C   LIG     1       5.418  21.242  17.737  1.00  0.00    -0.036 A 
HETATM   12  C   LIG     1       4.678  20.223  17.116  1.00  0.00     0.014 A 
HETATM   13  C   LIG     1       4.553  18.972  17.719  1.00  0.00     0.037 A 
HETATM   14  C   LIG     1       5.157  18.732  18.947  1.00  0.00     0.065 A 
HETATM   15  C   LIG     1       5.881  19.730  19.590  1.00  0.00     0.037 A 
HETATM   16  C   LIG     1       6.001  20.984  18.987  1.00  0.00     0.014 A 
BRANCH  14  17
HETATM   17  O   LIG     1       5.011  17.495  19.498  1.00  0.00    -0.361 OA
HETATM   18  H   LIG     1       4.260  17.052  19.071  1.00  0.00     0.217 HD
ENDBRANCH  14  17
ENDBRANCH  10  11
ENDBRANCH   5   9
BRANCH   7  19
HETATM   19  O   LIG     1       8.566  27.777  16.651  1.00  0.00    -0.361 OA
HETATM   20  H   LIG     1       9.133  27.655  15.872  1.00  0.00     0.217 HD
ENDBRANCH   7  19
ENDBRANCH   1   3
TORSDOF 5
ENDMDL
