MODEL 1
REMARK VINA RESULT:      -8.9      0.000      0.000
REMARK  5 active torsions:
REMARK  status: ('A' for Active; 'I' for Inactive)
REMARK    1  A    between atoms: O_1  and  C_7 
REMARK    2  A    between atoms: O_2  and  C_8 
REMARK    3  A    between atoms: O_3  and  C_17 
REMARK    4  A    between atoms: C_4  and  C_9 
REMARK    5  A    between atoms: C_10  and  C_12 
ROOT
HETATM    1  O   LIG     1      -0.408  18.284  14.864  1.00  0.00    -0.356 OA
HETATM    2  C   LIG     1       0.271  19.365  14.238  1.00  0.00     0.210 C 
ENDROOT
BRANCH   1   3
HETATM    3  C   LIG     1       0.230  17.693  15.922  1.00  0.00     0.071 A 
HETATM    4  C   LIG     1       1.319  18.407  16.427  1.00  0.00     0.048 A 
HETATM    5  C   LIG     1       2.050  17.924  17.519  1.00  0.00    -0.031 A 
HETATM    6  C   LIG     1       1.695  16.690  18.079  1.00  0.00     0.048 A 
HETATM    7  C   LIG     1       0.612  15.967  17.584  1.00  0.00     0.071 A 
HETATM    8  C   LIG     1      -0.120  16.475  16.506  1.00  0.00     0.073 A 
BRANCH   5   9
HETATM    9  C   LIG     1       3.216  18.680  18.005  1.00  0.00     0.012 C 
HETATM   10  C   LIG     1       3.881  19.591  17.276  1.00  0.00     0.012 C 
BRANCH  10  11
HETATM   11  C   LIG     1       5.012  20.379  17.782  1.00  0.00    -0.036 A 
HETATM   12  C   LIG     1       5.615  19.999  18.989  1.00  0.00     0.014 A 
HETATM   13  C   LIG     1       6.689  20.725  19.503  1.00  0.00     0.037 A 
HETATM   14  C   LIG     1       7.156  21.840  18.817  1.00  0.00     0.065 A 
HETATM   15  C   LIG     1       6.562  22.244  17.627  1.00  0.00     0.037 A 
HETATM   16  C   LIG     1       5.486  21.517  17.116  1.00  0.00     0.014 A 
BRANCH  14  17
HETATM   17  O   LIG     1       8.208  22.523  19.349  1.00  0.00    -0.361 OA
HETATM   18  H   LIG     1       8.985  21.942  19.339  1.00  0.00     0.217 HD
ENDBRANCH  14  17
ENDBRANCH  10  11
ENDBRANCH   5   9
BRANCH   7  19
HETATM   19  O   LIG     1       0.180  14.756  18.056  1.00  0.00    -0.356 OA
HETATM   20  C   LIG     1      -0.116  13.763  17.081  1.00  0.00     0.210 C 
ENDBRANCH   7  19
ENDBRANCH   1   3
TORSDOF 5
ENDMDL
MODEL 2
REMARK VINA RESULT:      -8.6      1.777      8.043
REMARK  5 active torsions:
REMARK  status: ('A' for Active; 'I' for Inactive)
REMARK    1  A    between atoms: O_1  and  C_7 
REMARK    2  A    between atoms: O_2  and  C_8 
REMARK    3  A    between atoms: O_3  and  C_17 
REMARK    4  A    between atoms: C_4  and  C_9 
REMARK    5  A    between atoms: C_10  and  C_12 
ROOT
HETATM    1  O   LIG     1       7.319  21.294  19.507  1.00  0.00    -0.356 OA
HETATM    2  C   LIG     1       8.639  21.768  19.266  1.00  0.00     0.210 C 
ENDROOT
BRANCH   1   3
HETATM    3  C   LIG     1       6.388  21.564  18.539  1.00  0.00     0.071 A 
HETATM    4  C   LIG     1       5.555  20.492  18.207  1.00  0.00     0.048 A 
HETATM    5  C   LIG     1       4.548  20.637  17.245  1.00  0.00    -0.031 A 
HETATM    6  C   LIG     1       4.410  21.868  16.589  1.00  0.00     0.048 A 
HETATM    7  C   LIG     1       5.235  22.944  16.911  1.00  0.00     0.071 A 
HETATM    8  C   LIG     1       6.221  22.787  17.889  1.00  0.00     0.073 A 
BRANCH   5   9
HETATM    9  C   LIG     1       3.712  19.479  16.889  1.00  0.00     0.012 C 
HETATM   10  C   LIG     1       2.387  19.416  17.093  1.00  0.00     0.012 C 
BRANCH  10  11
HETATM   11  C   LIG     1       1.548  18.278  16.689  1.00  0.00    -0.036 A 
HETATM   12  C   LIG     1       0.878  18.336  15.460  1.00  0.00     0.014 A 
HETATM   13  C   LIG     1       0.071  17.277  15.045  1.00  0.00     0.037 A 
HETATM   14  C   LIG     1      -0.078  16.164  15.863  1.00  0.00     0.065 A 
HETATM   15  C   LIG     1       0.565  16.094  17.094  1.00  0.00     0.037 A 
HETATM   16  C   LIG     1       1.371  17.155  17.507  1.00  0.00     0.014 A 
BRANCH  14  17
HETATM   17  O   LIG     1      -0.874  15.149  15.423  1.00  0.00    -0.361 OA
HETATM   18  H   LIG     1      -1.559  14.987  16.091  1.00  0.00     0.217 HD
ENDBRANCH  14  17
ENDBRANCH  10  11
ENDBRANCH   5   9
BRANCH   7  19
HETATM   19  O   LIG     1       5.184  24.185  16.335  1.00  0.00    -0.356 OA
HETATM   20  C   LIG     1       3.993  24.934  16.544  1.00  0.00     0.210 C 
ENDBRANCH   7  19
ENDBRANCH   1   3
TORSDOF 5
ENDMDL
MODEL 3
REMARK VINA RESULT:      -8.6      1.684      7.653
REMARK  5 active torsions:
REMARK  status: ('A' for Active; 'I' for Inactive)
REMARK    1  A    between atoms: O_1  and  C_7 
REMARK    2  A    between atoms: O_2  and  C_8 
REMARK    3  A    between atoms: O_3  and  C_17 
REMARK    4  A    between atoms: C_4  and  C_9 
REMARK    5  A    between atoms: C_10  and  C_12 
ROOT
HETATM    1  O   LIG     1       5.337  24.366  16.152  1.00  0.00    -0.356 OA
HETATM    2  C   LIG     1       4.314  25.224  16.643  1.00  0.00     0.210 C 
ENDROOT
BRANCH   1   3
HETATM    3  C   LIG     1       5.701  23.324  16.962  1.00  0.00     0.071 A 
HETATM    4  C   LIG     1       4.902  22.183  16.851  1.00  0.00     0.048 A 
HETATM    5  C   LIG     1       5.175  21.039  17.610  1.00  0.00    -0.031 A 
HETATM    6  C   LIG     1       6.243  21.066  18.516  1.00  0.00     0.048 A 
HETATM    7  C   LIG     1       7.046  22.198  18.638  1.00  0.00     0.071 A 
HETATM    8  C   LIG     1       6.772  23.324  17.856  1.00  0.00     0.073 A 
BRANCH   5   9
HETATM    9  C   LIG     1       4.292  19.866  17.499  1.00  0.00     0.012 C 
HETATM   10  C   LIG     1       2.988  19.931  17.186  1.00  0.00     0.012 C 
BRANCH  10  11
HETATM   11  C   LIG     1       2.124  18.753  17.027  1.00  0.00    -0.036 A 
HETATM   12  C   LIG     1       2.203  17.723  17.974  1.00  0.00     0.014 A 
HETATM   13  C   LIG     1       1.400  16.589  17.854  1.00  0.00     0.037 A 
HETATM   14  C   LIG     1       0.526  16.476  16.780  1.00  0.00     0.065 A 
HETATM   15  C   LIG     1       0.444  17.478  15.820  1.00  0.00     0.037 A 
HETATM   16  C   LIG     1       1.249  18.612  15.942  1.00  0.00     0.014 A 
BRANCH  14  17
HETATM   17  O   LIG     1      -0.243  15.354  16.697  1.00  0.00    -0.361 OA
HETATM   18  H   LIG     1      -1.167  15.626  16.577  1.00  0.00     0.217 HD
ENDBRANCH  14  17
ENDBRANCH  10  11
ENDBRANCH   5   9
BRANCH   7  19
HETATM   19  O   LIG     1       8.113  22.330  19.487  1.00  0.00    -0.356 OA
HETATM   20  C   LIG     1       9.326  21.708  19.084  1.00  0.00     0.210 C 
ENDBRANCH   7  19
ENDBRANCH   1   3
TORSDOF 5
ENDMDL
MODEL 4
REMARK VINA RESULT:      -8.4      0.264      2.825
REMARK  5 active torsions:
REMARK  status: ('A' for Active; 'I' for Inactive)
REMARK    1  A    between atoms: O_1  and  C_7 
REMARK    2  A    between atoms: O_2  and  C_8 
REMARK    3  A    between atoms: O_3  and  C_17 
REMARK    4  A    between atoms: C_4  and  C_9 
REMARK    5  A    between atoms: C_10  and  C_12 
ROOT
HETATM    1  O   LIG     1       0.267  15.099  18.347  1.00  0.00    -0.356 OA
HETATM    2  C   LIG     1       0.024  13.901  17.619  1.00  0.00     0.210 C 
ENDROOT
BRANCH   1   3
HETATM    3  C   LIG     1       0.605  16.203  17.610  1.00  0.00     0.071 A 
HETATM    4  C   LIG     1       1.722  16.903  18.074  1.00  0.00     0.048 A 
HETATM    5  C   LIG     1       2.185  18.040  17.402  1.00  0.00    -0.031 A 
HETATM    6  C   LIG     1       1.488  18.492  16.274  1.00  0.00     0.048 A 
HETATM    7  C   LIG     1       0.372  17.805  15.802  1.00  0.00     0.071 A 
HETATM    8  C   LIG     1      -0.064  16.658  16.473  1.00  0.00     0.073 A 
BRANCH   5   9
HETATM    9  C   LIG     1       3.342  18.779  17.937  1.00  0.00     0.012 C 
HETATM   10  C   LIG     1       3.981  19.758  17.278  1.00  0.00     0.012 C 
BRANCH  10  11
HETATM   11  C   LIG     1       5.102  20.526  17.836  1.00  0.00    -0.036 A 
HETATM   12  C   LIG     1       5.704  20.080  19.020  1.00  0.00     0.014 A 
HETATM   13  C   LIG     1       6.769  20.785  19.581  1.00  0.00     0.037 A 
HETATM   14  C   LIG     1       7.225  21.944  18.967  1.00  0.00     0.065 A 
HETATM   15  C   LIG     1       6.631  22.414  17.801  1.00  0.00     0.037 A 
HETATM   16  C   LIG     1       5.566  21.707  17.242  1.00  0.00     0.014 A 
BRANCH  14  17
HETATM   17  O   LIG     1       8.268  22.605  19.544  1.00  0.00    -0.361 OA
HETATM   18  H   LIG     1       7.999  22.881  20.435  1.00  0.00     0.217 HD
ENDBRANCH  14  17
ENDBRANCH  10  11
ENDBRANCH   5   9
BRANCH   7  19
HETATM   19  O   LIG     1      -0.378  18.157  14.712  1.00  0.00    -0.356 OA
HETATM   20  C   LIG     1      -0.012  19.363  14.052  1.00  0.00     0.210 C 
ENDBRANCH   7  19
ENDBRANCH   1   3
TORSDOF 5
ENDMDL
MODEL 5
REMARK VINA RESULT:      -8.1      1.553      2.729
REMARK  5 active torsions:
REMARK  status: ('A' for Active; 'I' for Inactive)
REMARK    1  A    between atoms: O_1  and  C_7 
REMARK    2  A    between atoms: O_2  and  C_8 
REMARK    3  A    between atoms: O_3  and  C_17 
REMARK    4  A    between atoms: C_4  and  C_9 
REMARK    5  A    between atoms: C_10  and  C_12 
ROOT
HETATM    1  O   LIG     1       1.630  19.912  15.157  1.00  0.00    -0.356 OA
HETATM    2  C   LIG     1       0.500  19.243  14.610  1.00  0.00     0.210 C 
ENDROOT
BRANCH   1   3
HETATM    3  C   LIG     1       2.193  19.349  16.271  1.00  0.00     0.071 A 
HETATM    4  C   LIG     1       3.323  20.009  16.759  1.00  0.00     0.048 A 
HETATM    5  C   LIG     1       3.985  19.548  17.903  1.00  0.00    -0.031 A 
HETATM    6  C   LIG     1       3.520  18.387  18.533  1.00  0.00     0.048 A 
HETATM    7  C   LIG     1       2.395  17.717  18.055  1.00  0.00     0.071 A 
HETATM    8  C   LIG     1       1.733  18.205  16.924  1.00  0.00     0.073 A 
BRANCH   5   9
HETATM    9  C   LIG     1       5.195  20.243  18.372  1.00  0.00     0.012 C 
HETATM   10  C   LIG     1       5.667  21.380  17.836  1.00  0.00     0.012 C 
BRANCH  10  11
HETATM   11  C   LIG     1       6.846  22.097  18.340  1.00  0.00    -0.036 A 
HETATM   12  C   LIG     1       6.934  23.481  18.138  1.00  0.00     0.014 A 
HETATM   13  C   LIG     1       8.039  24.195  18.600  1.00  0.00     0.037 A 
HETATM   14  C   LIG     1       9.067  23.524  19.253  1.00  0.00     0.065 A 
HETATM   15  C   LIG     1       9.008  22.149  19.448  1.00  0.00     0.037 A 
HETATM   16  C   LIG     1       7.901  21.437  18.985  1.00  0.00     0.014 A 
BRANCH  14  17
HETATM   17  O   LIG     1      10.130  24.256  19.690  1.00  0.00    -0.361 OA
HETATM   18  H   LIG     1      10.009  24.433  20.637  1.00  0.00     0.217 HD
ENDBRANCH  14  17
ENDBRANCH  10  11
ENDBRANCH   5   9
BRANCH   7  19
HETATM   19  O   LIG     1       1.857  16.579  18.594  1.00  0.00    -0.356 OA
HETATM   20  C   LIG     1       0.590  16.175  18.089  1.00  0.00     0.210 C 
ENDBRANCH   7  19
ENDBRANCH   1   3
TORSDOF 5
ENDMDL
MODEL 6
REMARK VINA RESULT:      -8.1      2.453      7.774
REMARK  5 active torsions:
REMARK  status: ('A' for Active; 'I' for Inactive)
REMARK    1  A    between atoms: O_1  and  C_7 
REMARK    2  A    between atoms: O_2  and  C_8 
REMARK    3  A    between atoms: O_3  and  C_17 
REMARK    4  A    between atoms: C_4  and  C_9 
REMARK    5  A    between atoms: C_10  and  C_12 
ROOT
HETATM    1  O   LIG     1       6.541  22.301  17.412  1.00  0.00    -0.356 OA
HETATM    2  C   LIG     1       6.861  21.807  18.707  1.00  0.00     0.210 C 
ENDROOT
BRANCH   1   3
HETATM    3  C   LIG     1       5.221  22.259  17.052  1.00  0.00     0.071 A 
HETATM    4  C   LIG     1       4.659  20.981  17.017  1.00  0.00     0.048 A 
HETATM    5  C   LIG     1       3.312  20.797  16.682  1.00  0.00    -0.031 A 
HETATM    6  C   LIG     1       2.540  21.916  16.342  1.00  0.00     0.048 A 
HETATM    7  C   LIG     1       3.089  23.197  16.371  1.00  0.00     0.071 A 
HETATM    8  C   LIG     1       4.430  23.363  16.730  1.00  0.00     0.073 A 
BRANCH   5   9
HETATM    9  C   LIG     1       2.759  19.435  16.616  1.00  0.00     0.012 C 
HETATM   10  C   LIG     1       1.453  19.146  16.730  1.00  0.00     0.012 C 
BRANCH  10  11
HETATM   11  C   LIG     1       0.900  17.789  16.613  1.00  0.00    -0.036 A 
HETATM   12  C   LIG     1       1.141  16.870  17.643  1.00  0.00     0.014 A 
HETATM   13  C   LIG     1       0.635  15.573  17.566  1.00  0.00     0.037 A 
HETATM   14  C   LIG     1      -0.102  15.188  16.453  1.00  0.00     0.065 A 
HETATM   15  C   LIG     1      -0.339  16.078  15.413  1.00  0.00     0.037 A 
HETATM   16  C   LIG     1       0.169  17.376  15.492  1.00  0.00     0.014 A 
BRANCH  14  17
HETATM   17  O   LIG     1      -0.581  13.912  16.414  1.00  0.00    -0.361 OA
HETATM   18  H   LIG     1      -1.551  13.950  16.417  1.00  0.00     0.217 HD
ENDBRANCH  14  17
ENDBRANCH  10  11
ENDBRANCH   5   9
BRANCH   7  19
HETATM   19  O   LIG     1       2.426  24.354  16.061  1.00  0.00    -0.356 OA
HETATM   20  C   LIG     1       2.231  25.279  17.124  1.00  0.00     0.210 C 
ENDBRANCH   7  19
ENDBRANCH   1   3
TORSDOF 5
ENDMDL
MODEL 7
REMARK VINA RESULT:      -8.0      2.047      4.174
REMARK  5 active torsions:
REMARK  status: ('A' for Active; 'I' for Inactive)
REMARK    1  A    between atoms: O_1  and  C_7 
REMARK    2  A    between atoms: O_2  and  C_8 
REMARK    3  A    between atoms: O_3  and  C_17 
REMARK    4  A    between atoms: C_4  and  C_9 
REMARK    5  A    between atoms: C_10  and  C_12 
ROOT
HETATM    1  O   LIG     1       2.732  17.144  18.811  1.00  0.00    -0.356 OA
HETATM    2  C   LIG     1       1.505  16.492  18.508  1.00  0.00     0.210 C 
ENDROOT
BRANCH   1   3
HETATM    3  C   LIG     1       3.011  18.281  18.099  1.00  0.00     0.071 A 
HETATM    4  C   LIG     1       4.127  18.995  18.542  1.00  0.00     0.048 A 
HETATM    5  C   LIG     1       4.533  20.166  17.892  1.00  0.00    -0.031 A 
HETATM    6  C   LIG     1       3.779  20.636  16.809  1.00  0.00     0.048 A 
HETATM    7  C   LIG     1       2.664  19.934  16.358  1.00  0.00     0.071 A 
HETATM    8  C   LIG     1       2.285  18.754  17.006  1.00  0.00     0.073 A 
BRANCH   5   9
HETATM    9  C   LIG     1       5.691  20.918  18.406  1.00  0.00     0.012 C 
HETATM   10  C   LIG     1       6.197  22.014  17.820  1.00  0.00     0.012 C 
BRANCH  10  11
HETATM   11  C   LIG     1       7.320  22.790  18.364  1.00  0.00    -0.036 A 
HETATM   12  C   LIG     1       8.495  22.116  18.726  1.00  0.00     0.014 A 
HETATM   13  C   LIG     1       9.581  22.818  19.248  1.00  0.00     0.037 A 
HETATM   14  C   LIG     1       9.490  24.194  19.422  1.00  0.00     0.065 A 
HETATM   15  C   LIG     1       8.328  24.879  19.086  1.00  0.00     0.037 A 
HETATM   16  C   LIG     1       7.243  24.174  18.564  1.00  0.00     0.014 A 
BRANCH  14  17
HETATM   17  O   LIG     1      10.572  24.846  19.934  1.00  0.00    -0.361 OA
HETATM   18  H   LIG     1      10.477  24.882  20.899  1.00  0.00     0.217 HD
ENDBRANCH  14  17
ENDBRANCH  10  11
ENDBRANCH   5   9
BRANCH   7  19
HETATM   19  O   LIG     1       1.861  20.302  15.312  1.00  0.00    -0.356 OA
HETATM   20  C   LIG     1       0.848  19.378  14.932  1.00  0.00     0.210 C 
ENDBRANCH   7  19
ENDBRANCH   1   3
TORSDOF 5
ENDMDL
MODEL 8
REMARK VINA RESULT:      -7.9      3.191      5.362
REMARK  5 active torsions:
REMARK  status: ('A' for Active; 'I' for Inactive)
REMARK    1  A    between atoms: O_1  and  C_7 
REMARK    2  A    between atoms: O_2  and  C_8 
REMARK    3  A    between atoms: O_3  and  C_17 
REMARK    4  A    between atoms: C_4  and  C_9 
REMARK    5  A    between atoms: C_10  and  C_12 
ROOT
HETATM    1  O   LIG     1       4.158  18.286  18.775  1.00  0.00    -0.356 OA
HETATM    2  C   LIG     1       5.531  18.174  19.130  1.00  0.00     0.210 C 
ENDROOT
BRANCH   1   3
HETATM    3  C   LIG     1       3.834  19.286  17.897  1.00  0.00     0.071 A 
HETATM    4  C   LIG     1       4.781  20.308  17.792  1.00  0.00     0.048 A 
HETATM    5  C   LIG     1       4.583  21.383  16.917  1.00  0.00    -0.031 A 
HETATM    6  C   LIG     1       3.398  21.440  16.172  1.00  0.00     0.048 A 
HETATM    7  C   LIG     1       2.445  20.428  16.268  1.00  0.00     0.071 A 
HETATM    8  C   LIG     1       2.670  19.351  17.131  1.00  0.00     0.073 A 
BRANCH   5   9
HETATM    9  C   LIG     1       5.581  22.464  16.856  1.00  0.00     0.012 C 
HETATM   10  C   LIG     1       5.278  23.771  16.885  1.00  0.00     0.012 C 
BRANCH  10  11
HETATM   11  C   LIG     1       6.280  24.846  16.875  1.00  0.00    -0.036 A 
HETATM   12  C   LIG     1       6.452  25.599  15.706  1.00  0.00     0.014 A 
HETATM   13  C   LIG     1       7.396  26.625  15.658  1.00  0.00     0.037 A 
HETATM   14  C   LIG     1       8.179  26.891  16.775  1.00  0.00     0.065 A 
HETATM   15  C   LIG     1       8.036  26.144  17.939  1.00  0.00     0.037 A 
HETATM   16  C   LIG     1       7.092  25.118  17.984  1.00  0.00     0.014 A 
BRANCH  14  17
HETATM   17  O   LIG     1       9.090  27.901  16.691  1.00  0.00    -0.361 OA
HETATM   18  H   LIG     1       8.611  28.731  16.534  1.00  0.00     0.217 HD
ENDBRANCH  14  17
ENDBRANCH  10  11
ENDBRANCH   5   9
BRANCH   7  19
HETATM   19  O   LIG     1       1.258  20.384  15.587  1.00  0.00    -0.356 OA
HETATM   20  C   LIG     1       0.239  19.559  16.137  1.00  0.00     0.210 C 
ENDBRANCH   7  19
ENDBRANCH   1   3
TORSDOF 5
ENDMDL
MODEL 9
REMARK VINA RESULT:      -7.7      2.984      8.888
REMARK  5 active torsions:
REMARK  status: ('A' for Active; 'I' for Inactive)
REMARK    1  A    between atoms: O_1  and  C_7 
REMARK    2  A    between atoms: O_2  and  C_8 
REMARK    3  A    between atoms: O_3  and  C_17 
REMARK    4  A    between atoms: C_4  and  C_9 
REMARK    5  A    between atoms: C_10  and  C_12 
ROOT
HETATM    1  O   LIG     1       6.600  26.661  16.541  1.00  0.00    -0.356 OA
HETATM    2  C   LIG     1       6.540  26.548  15.124  1.00  0.00     0.210 C 
ENDROOT
BRANCH   1   3
HETATM    3  C   LIG     1       7.285  25.678  17.203  1.00  0.00     0.071 A 
HETATM    4  C   LIG     1       6.536  24.537  17.503  1.00  0.00     0.048 A 
HETATM    5  C   LIG     1       7.120  23.449  18.163  1.00  0.00    -0.031 A 
HETATM    6  C   LIG     1       8.462  23.534  18.554  1.00  0.00     0.048 A 
HETATM    7  C   LIG     1       9.220  24.666  18.262  1.00  0.00     0.071 A 
HETATM    8  C   LIG     1       8.626  25.735  17.583  1.00  0.00     0.073 A 
BRANCH   5   9
HETATM    9  C   LIG     1       6.295  22.276  18.500  1.00  0.00     0.012 C 
HETATM   10  C   LIG     1       5.634  21.536  17.597  1.00  0.00     0.012 C 
BRANCH  10  11
HETATM   11  C   LIG     1       4.854  20.337  17.932  1.00  0.00    -0.036 A 
HETATM   12  C   LIG     1       5.328  19.480  18.934  1.00  0.00     0.014 A 
HETATM   13  C   LIG     1       4.617  18.331  19.278  1.00  0.00     0.037 A 
HETATM   14  C   LIG     1       3.436  18.029  18.611  1.00  0.00     0.065 A 
HETATM   15  C   LIG     1       2.956  18.856  17.603  1.00  0.00     0.037 A 
HETATM   16  C   LIG     1       3.670  20.005  17.260  1.00  0.00     0.014 A 
BRANCH  14  17
HETATM   17  O   LIG     1       2.767  16.898  18.975  1.00  0.00    -0.361 OA
HETATM   18  H   LIG     1       3.402  16.164  19.004  1.00  0.00     0.217 HD
ENDBRANCH  14  17
ENDBRANCH  10  11
ENDBRANCH   5   9
BRANCH   7  19
HETATM   19  O   LIG     1      10.535  24.852  18.595  1.00  0.00    -0.356 OA
HETATM   20  C   LIG     1      11.285  25.723  17.758  1.00  0.00     0.210 C 
ENDBRANCH   7  19
ENDBRANCH   1   3
TORSDOF 5
ENDMDL
