MODEL 1
REMARK VINA RESULT:      -8.9      0.000      0.000
REMARK  5 active torsions:
REMARK  status: ('A' for Active; 'I' for Inactive)
REMARK    1  A    between atoms: O_1  and  C_7 
REMARK    2  A    between atoms: O_2  and  C_8 
REMARK    3  A    between atoms: O_3  and  C_17 
REMARK    4  A    between atoms: C_4  and  C_9 
REMARK    5  A    between atoms: C_10  and  C_12 
ROOT
HETATM    1  O   LIG     1      -0.313  18.198  14.672  1.00  0.00    -0.356 OA
HETATM    2  C   LIG     1       0.280  19.382  14.151  1.00  0.00     0.210 C 
ENDROOT
BRANCH   1   3
HETATM    3  C   LIG     1       0.278  17.657  15.782  1.00  0.00     0.071 A 
HETATM    4  C   LIG     1       1.342  18.398  16.304  1.00  0.00     0.048 A 
HETATM    5  C   LIG     1       2.023  17.966  17.448  1.00  0.00    -0.031 A 
HETATM    6  C   LIG     1       1.647  16.756  18.045  1.00  0.00     0.048 A 
HETATM    7  C   LIG     1       0.589  16.007  17.533  1.00  0.00     0.071 A 
HETATM    8  C   LIG     1      -0.094  16.464  16.402  1.00  0.00     0.073 A 
BRANCH   5   9
HETATM    9  C   LIG     1       3.164  18.748  17.953  1.00  0.00     0.012 C 
HETATM   10  C   LIG     1       3.877  19.608  17.208  1.00  0.00     0.012 C 
BRANCH  10  11
HETATM   11  C   LIG     1       4.982  20.424  17.729  1.00  0.00    -0.036 A 
HETATM   12  C   LIG     1       5.581  20.056  18.941  1.00  0.00     0.014 A 
HETATM   13  C   LIG     1       6.630  20.808  19.468  1.00  0.00     0.037 A 
HETATM   14  C   LIG     1       7.075  21.936  18.791  1.00  0.00     0.065 A 
HETATM   15  C   LIG     1       6.484  22.329  17.596  1.00  0.00     0.037 A 
HETATM   16  C   LIG     1       5.434  21.575  17.071  1.00  0.00     0.014 A 
BRANCH  14  17
HETATM   17  O   LIG     1       8.104  22.645  19.337  1.00  0.00    -0.361 OA
HETATM   18  H   LIG     1       8.264  23.426  18.783  1.00  0.00     0.217 HD
ENDBRANCH  14  17
ENDBRANCH  10  11
ENDBRANCH   5   9
BRANCH   7  19
HETATM   19  O   LIG     1       0.140  14.816  18.038  1.00  0.00    -0.356 OA
HETATM   20  C   LIG     1      -0.070  13.767  17.100  1.00  0.00     0.210 C 
ENDBRANCH   7  19
ENDBRANCH   1   3
TORSDOF 5
ENDMDL
MODEL 2
REMARK VINA RESULT:      -8.6      1.618      7.705
REMARK  5 active torsions:
REMARK  status: ('A' for Active; 'I' for Inactive)
REMARK    1  A    between atoms: O_1  and  C_7 
REMARK    2  A    between atoms: O_2  and  C_8 
REMARK    3  A    between atoms: O_3  and  C_17 
REMARK    4  A    between atoms: C_4  and  C_9 
REMARK    5  A    between atoms: C_10  and  C_12 
ROOT
HETATM    1  O   LIG     1       5.361  24.378  16.110  1.00  0.00    -0.356 OA
HETATM    2  C   LIG     1       6.268  25.470  16.011  1.00  0.00     0.210 C 
ENDROOT
BRANCH   1   3
HETATM    3  C   LIG     1       5.718  23.364  16.957  1.00  0.00     0.071 A 
HETATM    4  C   LIG     1       4.893  22.238  16.910  1.00  0.00     0.048 A 
HETATM    5  C   LIG     1       5.155  21.121  17.713  1.00  0.00    -0.031 A 
HETATM    6  C   LIG     1       6.241  21.163  18.597  1.00  0.00     0.048 A 
HETATM    7  C   LIG     1       7.071  22.281  18.655  1.00  0.00     0.071 A 
HETATM    8  C   LIG     1       6.807  23.378  17.830  1.00  0.00     0.073 A 
BRANCH   5   9
HETATM    9  C   LIG     1       4.245  19.965  17.669  1.00  0.00     0.012 C 
HETATM   10  C   LIG     1       3.068  19.956  17.025  1.00  0.00     0.012 C 
BRANCH  10  11
HETATM   11  C   LIG     1       2.187  18.783  16.941  1.00  0.00    -0.036 A 
HETATM   12  C   LIG     1       2.282  17.794  17.930  1.00  0.00     0.014 A 
HETATM   13  C   LIG     1       1.465  16.665  17.882  1.00  0.00     0.037 A 
HETATM   14  C   LIG     1       0.560  16.516  16.838  1.00  0.00     0.065 A 
HETATM   15  C   LIG     1       0.461  17.476  15.839  1.00  0.00     0.037 A 
HETATM   16  C   LIG     1       1.280  18.605  15.888  1.00  0.00     0.014 A 
BRANCH  14  17
HETATM   17  O   LIG     1      -0.223  15.400  16.826  1.00  0.00    -0.361 OA
HETATM   18  H   LIG     1      -0.134  14.975  15.958  1.00  0.00     0.217 HD
ENDBRANCH  14  17
ENDBRANCH  10  11
ENDBRANCH   5   9
BRANCH   7  19
HETATM   19  O   LIG     1       8.156  22.425  19.478  1.00  0.00    -0.356 OA
HETATM   20  C   LIG     1       9.211  21.485  19.310  1.00  0.00     0.210 C 
ENDBRANCH   7  19
ENDBRANCH   1   3
TORSDOF 5
ENDMDL
MODEL 3
REMARK VINA RESULT:      -8.5      1.644      8.062
REMARK  5 active torsions:
REMARK  status: ('A' for Active; 'I' for Inactive)
REMARK    1  A    between atoms: O_1  and  C_7 
REMARK    2  A    between atoms: O_2  and  C_8 
REMARK    3  A    between atoms: O_3  and  C_17 
REMARK    4  A    between atoms: C_4  and  C_9 
REMARK    5  A    between atoms: C_10  and  C_12 
ROOT
HETATM    1  O   LIG     1       7.485  21.222  19.530  1.00  0.00    -0.356 OA
HETATM    2  C   LIG     1       8.715  21.935  19.461  1.00  0.00     0.210 C 
ENDROOT
BRANCH   1   3
HETATM    3  C   LIG     1       6.567  21.495  18.552  1.00  0.00     0.071 A 
HETATM    4  C   LIG     1       5.711  20.437  18.234  1.00  0.00     0.048 A 
HETATM    5  C   LIG     1       4.713  20.588  17.264  1.00  0.00    -0.031 A 
HETATM    6  C   LIG     1       4.608  21.808  16.584  1.00  0.00     0.048 A 
HETATM    7  C   LIG     1       5.456  22.871  16.890  1.00  0.00     0.071 A 
HETATM    8  C   LIG     1       6.433  22.709  17.878  1.00  0.00     0.073 A 
BRANCH   5   9
HETATM    9  C   LIG     1       3.851  19.443  16.924  1.00  0.00     0.012 C 
HETATM   10  C   LIG     1       2.540  19.379  17.202  1.00  0.00     0.012 C 
BRANCH  10  11
HETATM   11  C   LIG     1       1.674  18.257  16.816  1.00  0.00    -0.036 A 
HETATM   12  C   LIG     1       0.974  18.328  15.604  1.00  0.00     0.014 A 
HETATM   13  C   LIG     1       0.140  17.284  15.206  1.00  0.00     0.037 A 
HETATM   14  C   LIG     1      -0.006  16.171  16.025  1.00  0.00     0.065 A 
HETATM   15  C   LIG     1       0.665  16.087  17.239  1.00  0.00     0.037 A 
HETATM   16  C   LIG     1       1.498  17.134  17.635  1.00  0.00     0.014 A 
BRANCH  14  17
HETATM   17  O   LIG     1      -0.829  15.170  15.601  1.00  0.00    -0.361 OA
HETATM   18  H   LIG     1      -0.892  14.508  16.308  1.00  0.00     0.217 HD
ENDBRANCH  14  17
ENDBRANCH  10  11
ENDBRANCH   5   9
BRANCH   7  19
HETATM   19  O   LIG     1       5.438  24.102  16.291  1.00  0.00    -0.356 OA
HETATM   20  C   LIG     1       4.402  24.989  16.693  1.00  0.00     0.210 C 
ENDBRANCH   7  19
ENDBRANCH   1   3
TORSDOF 5
ENDMDL
MODEL 4
REMARK VINA RESULT:      -8.5      0.271      3.042
REMARK  5 active torsions:
REMARK  status: ('A' for Active; 'I' for Inactive)
REMARK    1  A    between atoms: O_1  and  C_7 
REMARK    2  A    between atoms: O_2  and  C_8 
REMARK    3  A    between atoms: O_3  and  C_17 
REMARK    4  A    between atoms: C_4  and  C_9 
REMARK    5  A    between atoms: C_10  and  C_12 
ROOT
HETATM    1  O   LIG     1       0.274  15.081  18.294  1.00  0.00    -0.356 OA
HETATM    2  C   LIG     1       0.008  13.913  17.527  1.00  0.00     0.210 C 
ENDROOT
BRANCH   1   3
HETATM    3  C   LIG     1       0.615  16.206  17.592  1.00  0.00     0.071 A 
HETATM    4  C   LIG     1       1.719  16.902  18.094  1.00  0.00     0.048 A 
HETATM    5  C   LIG     1       2.185  18.060  17.461  1.00  0.00    -0.031 A 
HETATM    6  C   LIG     1       1.504  18.537  16.334  1.00  0.00     0.048 A 
HETATM    7  C   LIG     1       0.401  17.854  15.824  1.00  0.00     0.071 A 
HETATM    8  C   LIG     1      -0.037  16.687  16.457  1.00  0.00     0.073 A 
BRANCH   5   9
HETATM    9  C   LIG     1       3.326  18.792  18.035  1.00  0.00     0.012 C 
HETATM   10  C   LIG     1       4.075  19.674  17.354  1.00  0.00     0.012 C 
BRANCH  10  11
HETATM   11  C   LIG     1       5.181  20.440  17.945  1.00  0.00    -0.036 A 
HETATM   12  C   LIG     1       5.605  21.615  17.310  1.00  0.00     0.014 A 
HETATM   13  C   LIG     1       6.654  22.366  17.840  1.00  0.00     0.037 A 
HETATM   14  C   LIG     1       7.290  21.937  18.998  1.00  0.00     0.065 A 
HETATM   15  C   LIG     1       6.896  20.766  19.634  1.00  0.00     0.037 A 
HETATM   16  C   LIG     1       5.847  20.016  19.102  1.00  0.00     0.014 A 
BRANCH  14  17
HETATM   17  O   LIG     1       8.310  22.698  19.487  1.00  0.00    -0.361 OA
HETATM   18  H   LIG     1       9.035  22.107  19.744  1.00  0.00     0.217 HD
ENDBRANCH  14  17
ENDBRANCH  10  11
ENDBRANCH   5   9
BRANCH   7  19
HETATM   19  O   LIG     1      -0.333  18.230  14.731  1.00  0.00    -0.356 OA
HETATM   20  C   LIG     1       0.156  19.340  13.988  1.00  0.00     0.210 C 
ENDBRANCH   7  19
ENDBRANCH   1   3
TORSDOF 5
ENDMDL
MODEL 5
REMARK VINA RESULT:      -8.1      2.286      7.424
REMARK  5 active torsions:
REMARK  status: ('A' for Active; 'I' for Inactive)
REMARK    1  A    between atoms: O_1  and  C_7 
REMARK    2  A    between atoms: O_2  and  C_8 
REMARK    3  A    between atoms: O_3  and  C_17 
REMARK    4  A    between atoms: C_4  and  C_9 
REMARK    5  A    between atoms: C_10  and  C_12 
ROOT
HETATM    1  O   LIG     1       2.392  23.966  16.160  1.00  0.00    -0.356 OA
HETATM    2  C   LIG     1       2.692  25.229  16.742  1.00  0.00     0.210 C 
ENDROOT
BRANCH   1   3
HETATM    3  C   LIG     1       3.243  22.937  16.461  1.00  0.00     0.071 A 
HETATM    4  C   LIG     1       2.697  21.659  16.320  1.00  0.00     0.048 A 
HETATM    5  C   LIG     1       3.465  20.518  16.579  1.00  0.00    -0.031 A 
HETATM    6  C   LIG     1       4.785  20.676  17.021  1.00  0.00     0.048 A 
HETATM    7  C   LIG     1       5.342  21.945  17.167  1.00  0.00     0.071 A 
HETATM    8  C   LIG     1       4.566  23.073  16.883  1.00  0.00     0.073 A 
BRANCH   5   9
HETATM    9  C   LIG     1       2.851  19.185  16.459  1.00  0.00     0.012 C 
HETATM   10  C   LIG     1       1.727  18.813  17.091  1.00  0.00     0.012 C 
BRANCH  10  11
HETATM   11  C   LIG     1       1.090  17.500  16.928  1.00  0.00    -0.036 A 
HETATM   12  C   LIG     1       1.272  16.531  17.924  1.00  0.00     0.014 A 
HETATM   13  C   LIG     1       0.686  15.272  17.803  1.00  0.00     0.037 A 
HETATM   14  C   LIG     1      -0.073  14.973  16.678  1.00  0.00     0.065 A 
HETATM   15  C   LIG     1      -0.252  15.913  15.669  1.00  0.00     0.037 A 
HETATM   16  C   LIG     1       0.336  17.172  15.793  1.00  0.00     0.014 A 
BRANCH  14  17
HETATM   17  O   LIG     1      -0.631  13.732  16.595  1.00  0.00    -0.361 OA
HETATM   18  H   LIG     1      -0.372  13.228  17.382  1.00  0.00     0.217 HD
ENDBRANCH  14  17
ENDBRANCH  10  11
ENDBRANCH   5   9
BRANCH   7  19
HETATM   19  O   LIG     1       6.617  22.212  17.589  1.00  0.00    -0.356 OA
HETATM   20  C   LIG     1       7.022  21.605  18.810  1.00  0.00     0.210 C 
ENDBRANCH   7  19
ENDBRANCH   1   3
TORSDOF 5
ENDMDL
MODEL 6
REMARK VINA RESULT:      -8.0      1.727      3.896
REMARK  5 active torsions:
REMARK  status: ('A' for Active; 'I' for Inactive)
REMARK    1  A    between atoms: O_1  and  C_7 
REMARK    2  A    between atoms: O_2  and  C_8 
REMARK    3  A    between atoms: O_3  and  C_17 
REMARK    4  A    between atoms: C_4  and  C_9 
REMARK    5  A    between atoms: C_10  and  C_12 
ROOT
HETATM    1  O   LIG     1       2.115  16.932  18.630  1.00  0.00    -0.356 OA
HETATM    2  C   LIG     1       1.000  16.206  18.127  1.00  0.00     0.210 C 
ENDROOT
BRANCH   1   3
HETATM    3  C   LIG     1       2.500  18.033  17.913  1.00  0.00     0.071 A 
HETATM    4  C   LIG     1       3.632  18.689  18.403  1.00  0.00     0.048 A 
HETATM    5  C   LIG     1       4.143  19.819  17.754  1.00  0.00    -0.031 A 
HETATM    6  C   LIG     1       3.478  20.309  16.622  1.00  0.00     0.048 A 
HETATM    7  C   LIG     1       2.348  19.664  16.124  1.00  0.00     0.071 A 
HETATM    8  C   LIG     1       1.864  18.524  16.772  1.00  0.00     0.073 A 
BRANCH   5   9
HETATM    9  C   LIG     1       5.314  20.512  18.315  1.00  0.00     0.012 C 
HETATM   10  C   LIG     1       5.863  21.617  17.785  1.00  0.00     0.012 C 
BRANCH  10  11
HETATM   11  C   LIG     1       7.000  22.334  18.377  1.00  0.00    -0.036 A 
HETATM   12  C   LIG     1       6.910  23.721  18.549  1.00  0.00     0.014 A 
HETATM   13  C   LIG     1       7.970  24.436  19.105  1.00  0.00     0.037 A 
HETATM   14  C   LIG     1       9.129  23.766  19.478  1.00  0.00     0.065 A 
HETATM   15  C   LIG     1       9.247  22.393  19.301  1.00  0.00     0.037 A 
HETATM   16  C   LIG     1       8.184  21.680  18.744  1.00  0.00     0.014 A 
BRANCH  14  17
HETATM   17  O   LIG     1      10.144  24.498  20.019  1.00  0.00    -0.361 OA
HETATM   18  H   LIG     1      10.143  24.358  20.979  1.00  0.00     0.217 HD
ENDBRANCH  14  17
ENDBRANCH  10  11
ENDBRANCH   5   9
BRANCH   7  19
HETATM   19  O   LIG     1       1.626  20.055  15.027  1.00  0.00    -0.356 OA
HETATM   20  C   LIG     1       0.510  19.246  14.680  1.00  0.00     0.210 C 
ENDBRANCH   7  19
ENDBRANCH   1   3
TORSDOF 5
ENDMDL
MODEL 7
REMARK VINA RESULT:      -8.0      1.967      3.317
REMARK  5 active torsions:
REMARK  status: ('A' for Active; 'I' for Inactive)
REMARK    1  A    between atoms: O_1  and  C_7 
REMARK    2  A    between atoms: O_2  and  C_8 
REMARK    3  A    between atoms: O_3  and  C_17 
REMARK    4  A    between atoms: C_4  and  C_9 
REMARK    5  A    between atoms: C_10  and  C_12 
ROOT
HETATM    1  O   LIG     1       2.045  20.282  15.406  1.00  0.00    -0.356 OA
HETATM    2  C   LIG     1       1.005  19.522  14.800  1.00  0.00     0.210 C 
ENDROOT
BRANCH   1   3
HETATM    3  C   LIG     1       2.655  19.721  16.496  1.00  0.00     0.071 A 
HETATM    4  C   LIG     1       3.782  20.406  16.959  1.00  0.00     0.048 A 
HETATM    5  C   LIG     1       4.489  19.949  18.077  1.00  0.00    -0.031 A 
HETATM    6  C   LIG     1       4.073  18.769  18.707  1.00  0.00     0.048 A 
HETATM    7  C   LIG     1       2.952  18.076  18.254  1.00  0.00     0.071 A 
HETATM    8  C   LIG     1       2.245  18.559  17.149  1.00  0.00     0.073 A 
BRANCH   5   9
HETATM    9  C   LIG     1       5.695  20.671  18.517  1.00  0.00     0.012 C 
HETATM   10  C   LIG     1       6.153  21.794  17.943  1.00  0.00     0.012 C 
BRANCH  10  11
HETATM   11  C   LIG     1       7.328  22.538  18.418  1.00  0.00    -0.036 A 
HETATM   12  C   LIG     1       7.249  23.933  18.518  1.00  0.00     0.014 A 
HETATM   13  C   LIG     1       8.344  24.674  18.962  1.00  0.00     0.037 A 
HETATM   14  C   LIG     1       9.525  24.021  19.295  1.00  0.00     0.065 A 
HETATM   15  C   LIG     1       9.630  22.639  19.187  1.00  0.00     0.037 A 
HETATM   16  C   LIG     1       8.533  21.901  18.742  1.00  0.00     0.014 A 
BRANCH  14  17
HETATM   17  O   LIG     1      10.574  24.778  19.726  1.00  0.00    -0.361 OA
HETATM   18  H   LIG     1      11.276  24.181  20.031  1.00  0.00     0.217 HD
ENDBRANCH  14  17
ENDBRANCH  10  11
ENDBRANCH   5   9
BRANCH   7  19
HETATM   19  O   LIG     1       2.460  16.919  18.796  1.00  0.00    -0.356 OA
HETATM   20  C   LIG     1       1.147  16.540  18.400  1.00  0.00     0.210 C 
ENDBRANCH   7  19
ENDBRANCH   1   3
TORSDOF 5
ENDMDL
MODEL 8
REMARK VINA RESULT:      -7.9      3.255      5.451
REMARK  5 active torsions:
REMARK  status: ('A' for Active; 'I' for Inactive)
REMARK    1  A    between atoms: O_1  and  C_7 
REMARK    2  A    between atoms: O_2  and  C_8 
REMARK    3  A    between atoms: O_3  and  C_17 
REMARK    4  A    between atoms: C_4  and  C_9 
REMARK    5  A    between atoms: C_10  and  C_12 
ROOT
HETATM    1  O   LIG     1       4.501  18.203  18.337  1.00  0.00    -0.356 OA
HETATM    2  C   LIG     1       5.480  18.415  19.347  1.00  0.00     0.210 C 
ENDROOT
BRANCH   1   3
HETATM    3  C   LIG     1       4.036  19.319  17.694  1.00  0.00     0.071 A 
HETATM    4  C   LIG     1       4.974  20.343  17.537  1.00  0.00     0.048 A 
HETATM    5  C   LIG     1       4.635  21.532  16.881  1.00  0.00    -0.031 A 
HETATM    6  C   LIG     1       3.324  21.699  16.416  1.00  0.00     0.048 A 
HETATM    7  C   LIG     1       2.379  20.686  16.567  1.00  0.00     0.071 A 
HETATM    8  C   LIG     1       2.741  19.496  17.206  1.00  0.00     0.073 A 
BRANCH   5   9
HETATM    9  C   LIG     1       5.633  22.608  16.764  1.00  0.00     0.012 C 
HETATM   10  C   LIG     1       5.360  23.911  16.930  1.00  0.00     0.012 C 
BRANCH  10  11
HETATM   11  C   LIG     1       6.369  24.976  16.862  1.00  0.00    -0.036 A 
HETATM   12  C   LIG     1       6.517  25.693  15.667  1.00  0.00     0.014 A 
HETATM   13  C   LIG     1       7.467  26.708  15.564  1.00  0.00     0.037 A 
HETATM   14  C   LIG     1       8.281  27.001  16.652  1.00  0.00     0.065 A 
HETATM   15  C   LIG     1       8.162  26.292  17.841  1.00  0.00     0.037 A 
HETATM   16  C   LIG     1       7.211  25.275  17.941  1.00  0.00     0.014 A 
BRANCH  14  17
HETATM   17  O   LIG     1       9.197  28.001  16.514  1.00  0.00    -0.361 OA
HETATM   18  H   LIG     1       8.736  28.796  16.201  1.00  0.00     0.217 HD
ENDBRANCH  14  17
ENDBRANCH  10  11
ENDBRANCH   5   9
BRANCH   7  19
HETATM   19  O   LIG     1       1.076  20.744  16.149  1.00  0.00    -0.356 OA
HETATM   20  C   LIG     1       0.395  19.502  16.019  1.00  0.00     0.210 C 
ENDBRANCH   7  19
ENDBRANCH   1   3
TORSDOF 5
ENDMDL
MODEL 9
REMARK VINA RESULT:      -7.8      1.856      8.366
REMARK  5 active torsions:
REMARK  status: ('A' for Active; 'I' for Inactive)
REMARK    1  A    between atoms: O_1  and  C_7 
REMARK    2  A    between atoms: O_2  and  C_8 
REMARK    3  A    between atoms: O_3  and  C_17 
REMARK    4  A    between atoms: C_4  and  C_9 
REMARK    5  A    between atoms: C_10  and  C_12 
ROOT
HETATM    1  O   LIG     1       8.247  22.126  19.435  1.00  0.00    -0.356 OA
HETATM    2  C   LIG     1       9.500  21.746  18.879  1.00  0.00     0.210 C 
ENDROOT
BRANCH   1   3
HETATM    3  C   LIG     1       7.311  22.605  18.558  1.00  0.00     0.071 A 
HETATM    4  C   LIG     1       6.330  21.685  18.180  1.00  0.00     0.048 A 
HETATM    5  C   LIG     1       5.303  22.050  17.302  1.00  0.00    -0.031 A 
HETATM    6  C   LIG     1       5.293  23.348  16.774  1.00  0.00     0.048 A 
HETATM    7  C   LIG     1       6.266  24.275  17.142  1.00  0.00     0.071 A 
HETATM    8  C   LIG     1       7.272  23.899  18.037  1.00  0.00     0.073 A 
BRANCH   5   9
HETATM    9  C   LIG     1       4.306  21.047  16.892  1.00  0.00     0.012 C 
HETATM   10  C   LIG     1       3.901  20.028  17.666  1.00  0.00     0.012 C 
BRANCH  10  11
HETATM   11  C   LIG     1       2.869  19.059  17.272  1.00  0.00    -0.036 A 
HETATM   12  C   LIG     1       2.159  19.274  16.082  1.00  0.00     0.014 A 
HETATM   13  C   LIG     1       1.171  18.378  15.677  1.00  0.00     0.037 A 
HETATM   14  C   LIG     1       0.879  17.272  16.468  1.00  0.00     0.065 A 
HETATM   15  C   LIG     1       1.559  17.050  17.659  1.00  0.00     0.037 A 
HETATM   16  C   LIG     1       2.548  17.948  18.062  1.00  0.00     0.014 A 
BRANCH  14  17
HETATM   17  O   LIG     1      -0.093  16.418  16.039  1.00  0.00    -0.361 OA
HETATM   18  H   LIG     1      -0.890  16.937  15.845  1.00  0.00     0.217 HD
ENDBRANCH  14  17
ENDBRANCH  10  11
ENDBRANCH   5   9
BRANCH   7  19
HETATM   19  O   LIG     1       6.347  25.565  16.689  1.00  0.00    -0.356 OA
HETATM   20  C   LIG     1       6.315  25.747  15.279  1.00  0.00     0.210 C 
ENDBRANCH   7  19
ENDBRANCH   1   3
TORSDOF 5
ENDMDL
