MODEL 1
REMARK VINA RESULT:      -9.0      0.000      0.000
REMARK  5 active torsions:
REMARK  status: ('A' for Active; 'I' for Inactive)
REMARK    1  A    between atoms: O_1  and  C_9 
REMARK    2  A    between atoms: O_2  and  C_11 
REMARK    3  A    between atoms: O_3  and  C_17 
REMARK    4  A    between atoms: C_4  and  C_7 
REMARK    5  A    between atoms: C_5  and  C_10 
ROOT
HETATM    1  O   LIG     1       0.369  14.763  18.030  1.00  0.00    -0.356 OA
HETATM    2  C   LIG     1      -0.078  13.708  17.183  1.00  0.00     0.210 C 
ENDROOT
BRANCH   1   3
HETATM    3  C   LIG     1       0.625  15.963  17.420  1.00  0.00     0.071 A 
HETATM    4  C   LIG     1       1.613  16.868  17.811  1.00  0.00     0.048 A 
HETATM    5  C   LIG     1       1.808  18.071  17.119  1.00  0.00    -0.031 A 
HETATM    6  C   LIG     1       0.982  18.368  16.030  1.00  0.00     0.048 A 
HETATM    7  C   LIG     1      -0.006  17.466  15.646  1.00  0.00     0.069 A 
HETATM    8  C   LIG     1      -0.191  16.268  16.330  1.00  0.00     0.073 A 
BRANCH   5   9
HETATM    9  C   LIG     1       2.847  18.976  17.623  1.00  0.00     0.012 C 
HETATM   10  C   LIG     1       3.668  19.711  16.855  1.00  0.00     0.012 C 
BRANCH  10  11
HETATM   11  C   LIG     1       4.727  20.570  17.405  1.00  0.00    -0.036 A 
HETATM   12  C   LIG     1       5.132  21.698  16.673  1.00  0.00     0.014 A 
HETATM   13  C   LIG     1       6.152  22.521  17.150  1.00  0.00     0.037 A 
HETATM   14  C   LIG     1       6.779  22.222  18.352  1.00  0.00     0.065 A 
HETATM   15  C   LIG     1       6.407  21.101  19.087  1.00  0.00     0.037 A 
HETATM   16  C   LIG     1       5.389  20.275  18.606  1.00  0.00     0.014 A 
BRANCH  14  17
HETATM   17  O   LIG     1       7.768  23.054  18.781  1.00  0.00    -0.361 OA
HETATM   18  H   LIG     1       8.401  22.538  19.306  1.00  0.00     0.217 HD
ENDBRANCH  14  17
ENDBRANCH  10  11
ENDBRANCH   5   9
BRANCH   7  19
HETATM   19  O   LIG     1      -0.788  17.804  14.578  1.00  0.00    -0.361 OA
HETATM   20  H   LIG     1      -0.592  17.198  13.845  1.00  0.00     0.217 HD
ENDBRANCH   7  19
ENDBRANCH   1   3
TORSDOF 5
ENDMDL
MODEL 2
REMARK VINA RESULT:      -8.8      1.522      7.841
REMARK  5 active torsions:
REMARK  status: ('A' for Active; 'I' for Inactive)
REMARK    1  A    between atoms: O_1  and  C_9 
REMARK    2  A    between atoms: O_2  and  C_11 
REMARK    3  A    between atoms: O_3  and  C_17 
REMARK    4  A    between atoms: C_4  and  C_7 
REMARK    5  A    between atoms: C_5  and  C_10 
ROOT
HETATM    1  O   LIG     1       6.358  22.934  17.558  1.00  0.00    -0.356 OA
HETATM    2  C   LIG     1       5.464  23.825  16.896  1.00  0.00     0.210 C 
ENDROOT
BRANCH   1   3
HETATM    3  C   LIG     1       5.835  21.730  17.948  1.00  0.00     0.071 A 
HETATM    4  C   LIG     1       4.863  21.012  17.248  1.00  0.00     0.048 A 
HETATM    5  C   LIG     1       4.393  19.779  17.722  1.00  0.00    -0.031 A 
HETATM    6  C   LIG     1       4.898  19.277  18.925  1.00  0.00     0.048 A 
HETATM    7  C   LIG     1       5.864  19.998  19.623  1.00  0.00     0.069 A 
HETATM    8  C   LIG     1       6.336  21.218  19.145  1.00  0.00     0.073 A 
BRANCH   5   9
HETATM    9  C   LIG     1       3.346  19.113  16.939  1.00  0.00     0.012 C 
HETATM   10  C   LIG     1       2.290  18.465  17.457  1.00  0.00     0.012 C 
BRANCH  10  11
HETATM   11  C   LIG     1       1.289  17.772  16.632  1.00  0.00    -0.036 A 
HETATM   12  C   LIG     1       0.806  16.525  17.061  1.00  0.00     0.014 A 
HETATM   13  C   LIG     1      -0.123  15.825  16.291  1.00  0.00     0.037 A 
HETATM   14  C   LIG     1      -0.569  16.357  15.088  1.00  0.00     0.065 A 
HETATM   15  C   LIG     1      -0.092  17.583  14.634  1.00  0.00     0.037 A 
HETATM   16  C   LIG     1       0.842  18.280  15.403  1.00  0.00     0.014 A 
BRANCH  14  17
HETATM   17  O   LIG     1      -1.478  15.641  14.371  1.00  0.00    -0.361 OA
HETATM   18  H   LIG     1      -1.125  15.500  13.477  1.00  0.00     0.217 HD
ENDBRANCH  14  17
ENDBRANCH  10  11
ENDBRANCH   5   9
BRANCH   7  19
HETATM   19  O   LIG     1       6.324  19.466  20.794  1.00  0.00    -0.361 OA
HETATM   20  H   LIG     1       5.647  18.867  21.150  1.00  0.00     0.217 HD
ENDBRANCH   7  19
ENDBRANCH   1   3
TORSDOF 5
ENDMDL
MODEL 3
REMARK VINA RESULT:      -8.7      0.856      2.542
REMARK  5 active torsions:
REMARK  status: ('A' for Active; 'I' for Inactive)
REMARK    1  A    between atoms: O_1  and  C_9 
REMARK    2  A    between atoms: O_2  and  C_11 
REMARK    3  A    between atoms: O_3  and  C_17 
REMARK    4  A    between atoms: C_4  and  C_7 
REMARK    5  A    between atoms: C_5  and  C_10 
ROOT
HETATM    1  O   LIG     1      -0.294  18.179  14.740  1.00  0.00    -0.356 OA
HETATM    2  C   LIG     1       0.262  19.288  14.040  1.00  0.00     0.210 C 
ENDROOT
BRANCH   1   3
HETATM    3  C   LIG     1       0.397  17.751  15.843  1.00  0.00     0.071 A 
HETATM    4  C   LIG     1       1.463  18.430  16.437  1.00  0.00     0.048 A 
HETATM    5  C   LIG     1       2.105  17.918  17.572  1.00  0.00    -0.031 A 
HETATM    6  C   LIG     1       1.675  16.698  18.103  1.00  0.00     0.048 A 
HETATM    7  C   LIG     1       0.615  16.021  17.506  1.00  0.00     0.069 A 
HETATM    8  C   LIG     1      -0.027  16.536  16.383  1.00  0.00     0.073 A 
BRANCH   5   9
HETATM    9  C   LIG     1       3.238  18.683  18.106  1.00  0.00     0.012 C 
HETATM   10  C   LIG     1       3.896  19.650  17.446  1.00  0.00     0.012 C 
BRANCH  10  11
HETATM   11  C   LIG     1       5.057  20.357  18.005  1.00  0.00    -0.036 A 
HETATM   12  C   LIG     1       5.541  21.495  17.339  1.00  0.00     0.014 A 
HETATM   13  C   LIG     1       6.657  22.176  17.824  1.00  0.00     0.037 A 
HETATM   14  C   LIG     1       7.302  21.724  18.968  1.00  0.00     0.065 A 
HETATM   15  C   LIG     1       6.852  20.589  19.635  1.00  0.00     0.037 A 
HETATM   16  C   LIG     1       5.737  19.906  19.146  1.00  0.00     0.014 A 
BRANCH  14  17
HETATM   17  O   LIG     1       8.386  22.421  19.407  1.00  0.00    -0.361 OA
HETATM   18  H   LIG     1       9.188  21.928  19.170  1.00  0.00     0.217 HD
ENDBRANCH  14  17
ENDBRANCH  10  11
ENDBRANCH   5   9
BRANCH   7  19
HETATM   19  O   LIG     1       0.234  14.832  18.060  1.00  0.00    -0.361 OA
HETATM   20  H   LIG     1      -0.657  14.611  17.740  1.00  0.00     0.217 HD
ENDBRANCH   7  19
ENDBRANCH   1   3
TORSDOF 5
ENDMDL
MODEL 4
REMARK VINA RESULT:      -8.5      1.359      7.691
REMARK  5 active torsions:
REMARK  status: ('A' for Active; 'I' for Inactive)
REMARK    1  A    between atoms: O_1  and  C_9 
REMARK    2  A    between atoms: O_2  and  C_11 
REMARK    3  A    between atoms: O_3  and  C_17 
REMARK    4  A    between atoms: C_4  and  C_7 
REMARK    5  A    between atoms: C_5  and  C_10 
ROOT
HETATM    1  O   LIG     1       7.306  21.232  19.460  1.00  0.00    -0.356 OA
HETATM    2  C   LIG     1       8.442  22.079  19.304  1.00  0.00     0.210 C 
ENDROOT
BRANCH   1   3
HETATM    3  C   LIG     1       6.326  21.353  18.511  1.00  0.00     0.071 A 
HETATM    4  C   LIG     1       5.436  20.342  18.142  1.00  0.00     0.048 A 
HETATM    5  C   LIG     1       4.457  20.561  17.164  1.00  0.00    -0.031 A 
HETATM    6  C   LIG     1       4.389  21.811  16.540  1.00  0.00     0.048 A 
HETATM    7  C   LIG     1       5.281  22.815  16.905  1.00  0.00     0.069 A 
HETATM    8  C   LIG     1       6.247  22.598  17.884  1.00  0.00     0.073 A 
BRANCH   5   9
HETATM    9  C   LIG     1       3.588  19.431  16.817  1.00  0.00     0.012 C 
HETATM   10  C   LIG     1       2.254  19.406  16.973  1.00  0.00     0.012 C 
BRANCH  10  11
HETATM   11  C   LIG     1       1.430  18.232  16.654  1.00  0.00    -0.036 A 
HETATM   12  C   LIG     1       1.429  17.144  17.542  1.00  0.00     0.014 A 
HETATM   13  C   LIG     1       0.681  16.001  17.259  1.00  0.00     0.037 A 
HETATM   14  C   LIG     1      -0.063  15.932  16.089  1.00  0.00     0.065 A 
HETATM   15  C   LIG     1      -0.065  16.990  15.185  1.00  0.00     0.037 A 
HETATM   16  C   LIG     1       0.689  18.131  15.467  1.00  0.00     0.014 A 
BRANCH  14  17
HETATM   17  O   LIG     1      -0.780  14.798  15.855  1.00  0.00    -0.361 OA
HETATM   18  H   LIG     1      -0.746  14.241  16.649  1.00  0.00     0.217 HD
ENDBRANCH  14  17
ENDBRANCH  10  11
ENDBRANCH   5   9
BRANCH   7  19
HETATM   19  O   LIG     1       5.176  24.016  16.265  1.00  0.00    -0.361 OA
HETATM   20  H   LIG     1       4.361  24.456  16.559  1.00  0.00     0.217 HD
ENDBRANCH   7  19
ENDBRANCH   1   3
TORSDOF 5
ENDMDL
MODEL 5
REMARK VINA RESULT:      -8.4      1.415      7.914
REMARK  5 active torsions:
REMARK  status: ('A' for Active; 'I' for Inactive)
REMARK    1  A    between atoms: O_1  and  C_9 
REMARK    2  A    between atoms: O_2  and  C_11 
REMARK    3  A    between atoms: O_3  and  C_17 
REMARK    4  A    between atoms: C_4  and  C_7 
REMARK    5  A    between atoms: C_5  and  C_10 
ROOT
HETATM    1  O   LIG     1       5.427  24.411  16.149  1.00  0.00    -0.356 OA
HETATM    2  C   LIG     1       4.378  25.270  16.585  1.00  0.00     0.210 C 
ENDROOT
BRANCH   1   3
HETATM    3  C   LIG     1       5.648  23.292  16.908  1.00  0.00     0.071 A 
HETATM    4  C   LIG     1       4.895  22.117  16.846  1.00  0.00     0.048 A 
HETATM    5  C   LIG     1       5.203  21.017  17.657  1.00  0.00    -0.031 A 
HETATM    6  C   LIG     1       6.272  21.112  18.553  1.00  0.00     0.048 A 
HETATM    7  C   LIG     1       7.017  22.286  18.617  1.00  0.00     0.069 A 
HETATM    8  C   LIG     1       6.716  23.375  17.803  1.00  0.00     0.073 A 
BRANCH   5   9
HETATM    9  C   LIG     1       4.336  19.838  17.548  1.00  0.00     0.012 C 
HETATM   10  C   LIG     1       3.069  19.851  17.102  1.00  0.00     0.012 C 
BRANCH  10  11
HETATM   11  C   LIG     1       2.222  18.651  17.054  1.00  0.00    -0.036 A 
HETATM   12  C   LIG     1       1.294  18.518  16.009  1.00  0.00     0.014 A 
HETATM   13  C   LIG     1       0.454  17.406  15.946  1.00  0.00     0.037 A 
HETATM   14  C   LIG     1       0.528  16.426  16.927  1.00  0.00     0.065 A 
HETATM   15  C   LIG     1       1.427  16.543  17.981  1.00  0.00     0.037 A 
HETATM   16  C   LIG     1       2.264  17.659  18.046  1.00  0.00     0.014 A 
BRANCH  14  17
HETATM   17  O   LIG     1      -0.309  15.356  16.824  1.00  0.00    -0.361 OA
HETATM   18  H   LIG     1      -0.768  15.240  17.672  1.00  0.00     0.217 HD
ENDBRANCH  14  17
ENDBRANCH  10  11
ENDBRANCH   5   9
BRANCH   7  19
HETATM   19  O   LIG     1       8.049  22.331  19.510  1.00  0.00    -0.361 OA
HETATM   20  H   LIG     1       7.907  21.646  20.185  1.00  0.00     0.217 HD
ENDBRANCH   7  19
ENDBRANCH   1   3
TORSDOF 5
ENDMDL
MODEL 6
REMARK VINA RESULT:      -8.4      1.984      3.591
REMARK  5 active torsions:
REMARK  status: ('A' for Active; 'I' for Inactive)
REMARK    1  A    between atoms: O_1  and  C_9 
REMARK    2  A    between atoms: O_2  and  C_11 
REMARK    3  A    between atoms: O_3  and  C_17 
REMARK    4  A    between atoms: C_4  and  C_7 
REMARK    5  A    between atoms: C_5  and  C_10 
ROOT
HETATM    1  O   LIG     1       1.219  19.007  15.246  1.00  0.00    -0.356 OA
HETATM    2  C   LIG     1      -0.145  18.694  15.515  1.00  0.00     0.210 C 
ENDROOT
BRANCH   1   3
HETATM    3  C   LIG     1       2.075  18.952  16.314  1.00  0.00     0.071 A 
HETATM    4  C   LIG     1       3.186  19.778  16.496  1.00  0.00     0.048 A 
HETATM    5  C   LIG     1       4.002  19.654  17.629  1.00  0.00    -0.031 A 
HETATM    6  C   LIG     1       3.701  18.671  18.577  1.00  0.00     0.048 A 
HETATM    7  C   LIG     1       2.597  17.845  18.389  1.00  0.00     0.069 A 
HETATM    8  C   LIG     1       1.782  17.976  17.268  1.00  0.00     0.073 A 
BRANCH   5   9
HETATM    9  C   LIG     1       5.166  20.542  17.719  1.00  0.00     0.012 C 
HETATM   10  C   LIG     1       5.871  20.779  18.838  1.00  0.00     0.012 C 
BRANCH  10  11
HETATM   11  C   LIG     1       7.004  21.715  18.890  1.00  0.00    -0.036 A 
HETATM   12  C   LIG     1       6.812  23.035  18.452  1.00  0.00     0.014 A 
HETATM   13  C   LIG     1       7.870  23.944  18.461  1.00  0.00     0.037 A 
HETATM   14  C   LIG     1       9.125  23.541  18.898  1.00  0.00     0.065 A 
HETATM   15  C   LIG     1       9.344  22.234  19.321  1.00  0.00     0.037 A 
HETATM   16  C   LIG     1       8.285  21.324  19.306  1.00  0.00     0.014 A 
BRANCH  14  17
HETATM   17  O   LIG     1      10.129  24.462  18.893  1.00  0.00    -0.361 OA
HETATM   18  H   LIG     1       9.888  25.185  19.494  1.00  0.00     0.217 HD
ENDBRANCH  14  17
ENDBRANCH  10  11
ENDBRANCH   5   9
BRANCH   7  19
HETATM   19  O   LIG     1       2.348  16.899  19.342  1.00  0.00    -0.361 OA
HETATM   20  H   LIG     1       1.494  16.478  19.146  1.00  0.00     0.217 HD
ENDBRANCH   7  19
ENDBRANCH   1   3
TORSDOF 5
ENDMDL
MODEL 7
REMARK VINA RESULT:      -7.9      1.574      8.188
REMARK  5 active torsions:
REMARK  status: ('A' for Active; 'I' for Inactive)
REMARK    1  A    between atoms: O_1  and  C_9 
REMARK    2  A    between atoms: O_2  and  C_11 
REMARK    3  A    between atoms: O_3  and  C_17 
REMARK    4  A    between atoms: C_4  and  C_7 
REMARK    5  A    between atoms: C_5  and  C_10 
ROOT
HETATM    1  O   LIG     1       6.341  24.846  17.231  1.00  0.00    -0.356 OA
HETATM    2  C   LIG     1       7.584  25.391  17.665  1.00  0.00     0.210 C 
ENDROOT
BRANCH   1   3
HETATM    3  C   LIG     1       6.138  23.517  17.493  1.00  0.00     0.071 A 
HETATM    4  C   LIG     1       5.115  22.737  16.949  1.00  0.00     0.048 A 
HETATM    5  C   LIG     1       4.991  21.379  17.270  1.00  0.00    -0.031 A 
HETATM    6  C   LIG     1       5.901  20.808  18.165  1.00  0.00     0.048 A 
HETATM    7  C   LIG     1       6.917  21.588  18.709  1.00  0.00     0.069 A 
HETATM    8  C   LIG     1       7.044  22.935  18.382  1.00  0.00     0.073 A 
BRANCH   5   9
HETATM    9  C   LIG     1       3.865  20.648  16.677  1.00  0.00     0.012 C 
HETATM   10  C   LIG     1       3.244  19.599  17.241  1.00  0.00     0.012 C 
BRANCH  10  11
HETATM   11  C   LIG     1       2.149  18.868  16.588  1.00  0.00    -0.036 A 
HETATM   12  C   LIG     1       1.614  17.738  17.227  1.00  0.00     0.014 A 
HETATM   13  C   LIG     1       0.592  17.003  16.625  1.00  0.00     0.037 A 
HETATM   14  C   LIG     1       0.105  17.384  15.382  1.00  0.00     0.065 A 
HETATM   15  C   LIG     1       0.630  18.490  14.721  1.00  0.00     0.037 A 
HETATM   16  C   LIG     1       1.656  19.222  15.323  1.00  0.00     0.014 A 
BRANCH  14  17
HETATM   17  O   LIG     1      -0.895  16.639  14.832  1.00  0.00    -0.361 OA
HETATM   18  H   LIG     1      -0.554  16.207  14.033  1.00  0.00     0.217 HD
ENDBRANCH  14  17
ENDBRANCH  10  11
ENDBRANCH   5   9
BRANCH   7  19
HETATM   19  O   LIG     1       7.779  20.984  19.580  1.00  0.00    -0.361 OA
HETATM   20  H   LIG     1       8.218  21.670  20.109  1.00  0.00     0.217 HD
ENDBRANCH   7  19
ENDBRANCH   1   3
TORSDOF 5
ENDMDL
MODEL 8
REMARK VINA RESULT:      -7.8      1.923      8.559
REMARK  5 active torsions:
REMARK  status: ('A' for Active; 'I' for Inactive)
REMARK    1  A    between atoms: O_1  and  C_9 
REMARK    2  A    between atoms: O_2  and  C_11 
REMARK    3  A    between atoms: O_3  and  C_17 
REMARK    4  A    between atoms: C_4  and  C_7 
REMARK    5  A    between atoms: C_5  and  C_10 
ROOT
HETATM    1  O   LIG     1       7.680  25.116  19.254  1.00  0.00    -0.356 OA
HETATM    2  C   LIG     1       8.892  25.688  19.739  1.00  0.00     0.210 C 
ENDROOT
BRANCH   1   3
HETATM    3  C   LIG     1       7.661  23.753  19.126  1.00  0.00     0.071 A 
HETATM    4  C   LIG     1       6.555  22.998  18.728  1.00  0.00     0.048 A 
HETATM    5  C   LIG     1       6.634  21.603  18.617  1.00  0.00    -0.031 A 
HETATM    6  C   LIG     1       7.838  20.964  18.930  1.00  0.00     0.048 A 
HETATM    7  C   LIG     1       8.936  21.718  19.331  1.00  0.00     0.069 A 
HETATM    8  C   LIG     1       8.859  23.105  19.432  1.00  0.00     0.073 A 
BRANCH   5   9
HETATM    9  C   LIG     1       5.412  20.890  18.226  1.00  0.00     0.012 C 
HETATM   10  C   LIG     1       5.082  19.650  18.622  1.00  0.00     0.012 C 
BRANCH  10  11
HETATM   11  C   LIG     1       3.869  18.958  18.166  1.00  0.00    -0.036 A 
HETATM   12  C   LIG     1       3.148  19.494  17.087  1.00  0.00     0.014 A 
HETATM   13  C   LIG     1       1.977  18.880  16.643  1.00  0.00     0.037 A 
HETATM   14  C   LIG     1       1.513  17.735  17.277  1.00  0.00     0.065 A 
HETATM   15  C   LIG     1       2.199  17.194  18.359  1.00  0.00     0.037 A 
HETATM   16  C   LIG     1       3.369  17.813  18.804  1.00  0.00     0.014 A 
BRANCH  14  17
HETATM   17  O   LIG     1       0.366  17.167  16.809  1.00  0.00    -0.361 OA
HETATM   18  H   LIG     1       0.593  16.567  16.081  1.00  0.00     0.217 HD
ENDBRANCH  14  17
ENDBRANCH  10  11
ENDBRANCH   5   9
BRANCH   7  19
HETATM   19  O   LIG     1      10.088  21.047  19.627  1.00  0.00    -0.361 OA
HETATM   20  H   LIG     1      10.678  21.644  20.118  1.00  0.00     0.217 HD
ENDBRANCH   7  19
ENDBRANCH   1   3
TORSDOF 5
ENDMDL
MODEL 9
REMARK VINA RESULT:      -7.7      1.363      1.929
REMARK  5 active torsions:
REMARK  status: ('A' for Active; 'I' for Inactive)
REMARK    1  A    between atoms: O_1  and  C_9 
REMARK    2  A    between atoms: O_2  and  C_11 
REMARK    3  A    between atoms: O_3  and  C_17 
REMARK    4  A    between atoms: C_4  and  C_7 
REMARK    5  A    between atoms: C_5  and  C_10 
ROOT
HETATM    1  O   LIG     1       0.075  15.238  19.937  1.00  0.00    -0.356 OA
HETATM    2  C   LIG     1       0.081  15.993  21.145  1.00  0.00     0.210 C 
ENDROOT
BRANCH   1   3
HETATM    3  C   LIG     1       0.418  15.916  18.797  1.00  0.00     0.071 A 
HETATM    4  C   LIG     1       1.287  17.008  18.743  1.00  0.00     0.048 A 
HETATM    5  C   LIG     1       1.586  17.634  17.525  1.00  0.00    -0.031 A 
HETATM    6  C   LIG     1       0.986  17.162  16.354  1.00  0.00     0.048 A 
HETATM    7  C   LIG     1       0.117  16.077  16.412  1.00  0.00     0.069 A 
HETATM    8  C   LIG     1      -0.173  15.451  17.621  1.00  0.00     0.073 A 
BRANCH   5   9
HETATM    9  C   LIG     1       2.482  18.796  17.570  1.00  0.00     0.012 C 
HETATM   10  C   LIG     1       3.824  18.735  17.567  1.00  0.00     0.012 C 
BRANCH  10  11
HETATM   11  C   LIG     1       4.682  19.926  17.660  1.00  0.00    -0.036 A 
HETATM   12  C   LIG     1       5.404  20.149  18.843  1.00  0.00     0.014 A 
HETATM   13  C   LIG     1       6.207  21.282  18.978  1.00  0.00     0.037 A 
HETATM   14  C   LIG     1       6.288  22.201  17.941  1.00  0.00     0.065 A 
HETATM   15  C   LIG     1       5.569  22.011  16.765  1.00  0.00     0.037 A 
HETATM   16  C   LIG     1       4.762  20.879  16.634  1.00  0.00     0.014 A 
BRANCH  14  17
HETATM   17  O   LIG     1       7.086  23.291  18.115  1.00  0.00    -0.361 OA
HETATM   18  H   LIG     1       6.742  23.810  18.861  1.00  0.00     0.217 HD
ENDBRANCH  14  17
ENDBRANCH  10  11
ENDBRANCH   5   9
BRANCH   7  19
HETATM   19  O   LIG     1      -0.446  15.656  15.240  1.00  0.00    -0.361 OA
HETATM   20  H   LIG     1      -0.757  14.743  15.356  1.00  0.00     0.217 HD
ENDBRANCH   7  19
ENDBRANCH   1   3
TORSDOF 5
ENDMDL
