MODEL 1
REMARK VINA RESULT:      -9.2      0.000      0.000
REMARK  5 active torsions:
REMARK  status: ('A' for Active; 'I' for Inactive)
REMARK    1  A    between atoms: O_1  and  C_9 
REMARK    2  A    between atoms: O_2  and  C_10 
REMARK    3  A    between atoms: O_3  and  C_15 
REMARK    4  A    between atoms: C_4  and  C_7 
REMARK    5  A    between atoms: C_5  and  C_11 
ROOT
HETATM    1  O   LIG     1       7.455  23.274  18.442  1.00  0.00    -0.353 OA
HETATM    2  C   LIG     1       7.131  24.155  19.510  1.00  0.00     0.210 C 
ENDROOT
BRANCH   1   3
HETATM    3  C   LIG     1       6.558  22.274  18.184  1.00  0.00     0.101 A 
HETATM    4  C   LIG     1       6.541  21.272  19.157  1.00  0.00     0.040 A 
HETATM    5  C   LIG     1       5.664  20.190  19.056  1.00  0.00     0.014 A 
HETATM    6  C   LIG     1       4.781  20.086  17.976  1.00  0.00    -0.033 A 
HETATM    7  C   LIG     1       4.771  21.109  17.017  1.00  0.00     0.050 A 
HETATM    8  C   LIG     1       5.657  22.191  17.117  1.00  0.00     0.099 A 
BRANCH   6   9
HETATM    9  C   LIG     1       3.825  18.972  17.858  1.00  0.00     0.012 C 
HETATM   10  C   LIG     1       2.677  19.049  17.168  1.00  0.00     0.012 C 
BRANCH  10  11
HETATM   11  C   LIG     1       1.704  17.953  17.032  1.00  0.00    -0.034 A 
HETATM   12  C   LIG     1       0.863  17.939  15.910  1.00  0.00     0.048 A 
HETATM   13  C   LIG     1      -0.053  16.904  15.740  1.00  0.00     0.066 A 
HETATM   14  C   LIG     1      -0.143  15.871  16.663  1.00  0.00     0.036 A 
HETATM   15  C   LIG     1       0.704  15.863  17.770  1.00  0.00     0.004 A 
HETATM   16  C   LIG     1       1.629  16.895  17.949  1.00  0.00     0.011 A 
BRANCH  13  17
HETATM   17  O   LIG     1      -0.893  16.867  14.666  1.00  0.00    -0.361 OA
HETATM   18  H   LIG     1      -0.384  17.077  13.865  1.00  0.00     0.217 HD
ENDBRANCH  13  17
ENDBRANCH  10  11
ENDBRANCH   6   9
BRANCH   8  19
HETATM   19  O   LIG     1       5.601  23.173  16.167  1.00  0.00    -0.358 OA
HETATM   20  H   LIG     1       5.557  22.766  15.286  1.00  0.00     0.217 HD
ENDBRANCH   8  19
ENDBRANCH   1   3
TORSDOF 5
ENDMDL
MODEL 2
REMARK VINA RESULT:      -9.0      1.054      7.613
REMARK  5 active torsions:
REMARK  status: ('A' for Active; 'I' for Inactive)
REMARK    1  A    between atoms: O_1  and  C_9 
REMARK    2  A    between atoms: O_2  and  C_10 
REMARK    3  A    between atoms: O_3  and  C_15 
REMARK    4  A    between atoms: C_4  and  C_7 
REMARK    5  A    between atoms: C_5  and  C_11 
ROOT
HETATM    1  O   LIG     1      -0.436  14.996  16.550  1.00  0.00    -0.353 OA
HETATM    2  C   LIG     1       0.003  13.931  17.384  1.00  0.00     0.210 C 
ENDROOT
BRANCH   1   3
HETATM    3  C   LIG     1       0.265  16.168  16.641  1.00  0.00     0.101 A 
HETATM    4  C   LIG     1       1.154  16.207  17.717  1.00  0.00     0.040 A 
HETATM    5  C   LIG     1       1.963  17.323  17.939  1.00  0.00     0.014 A 
HETATM    6  C   LIG     1       1.902  18.429  17.084  1.00  0.00    -0.033 A 
HETATM    7  C   LIG     1       1.036  18.378  15.982  1.00  0.00     0.050 A 
HETATM    8  C   LIG     1       0.220  17.258  15.766  1.00  0.00     0.099 A 
BRANCH   6   9
HETATM    9  C   LIG     1       2.762  19.608  17.276  1.00  0.00     0.012 C 
HETATM   10  C   LIG     1       4.091  19.538  17.446  1.00  0.00     0.012 C 
BRANCH  10  11
HETATM   11  C   LIG     1       4.976  20.697  17.640  1.00  0.00    -0.034 A 
HETATM   12  C   LIG     1       4.920  21.746  16.710  1.00  0.00     0.048 A 
HETATM   13  C   LIG     1       5.728  22.869  16.878  1.00  0.00     0.066 A 
HETATM   14  C   LIG     1       6.588  22.973  17.963  1.00  0.00     0.036 A 
HETATM   15  C   LIG     1       6.635  21.947  18.904  1.00  0.00     0.004 A 
HETATM   16  C   LIG     1       5.826  20.818  18.748  1.00  0.00     0.011 A 
BRANCH  13  17
HETATM   17  O   LIG     1       5.705  23.900  15.987  1.00  0.00    -0.361 OA
HETATM   18  H   LIG     1       4.782  24.083  15.745  1.00  0.00     0.217 HD
ENDBRANCH  13  17
ENDBRANCH  10  11
ENDBRANCH   6   9
BRANCH   8  19
HETATM   19  O   LIG     1      -0.597  17.246  14.669  1.00  0.00    -0.358 OA
HETATM   20  H   LIG     1      -1.336  16.636  14.824  1.00  0.00     0.217 HD
ENDBRANCH   8  19
ENDBRANCH   1   3
TORSDOF 5
ENDMDL
MODEL 3
REMARK VINA RESULT:      -8.8      0.825      1.636
REMARK  5 active torsions:
REMARK  status: ('A' for Active; 'I' for Inactive)
REMARK    1  A    between atoms: O_1  and  C_9 
REMARK    2  A    between atoms: O_2  and  C_10 
REMARK    3  A    between atoms: O_3  and  C_15 
REMARK    4  A    between atoms: C_4  and  C_7 
REMARK    5  A    between atoms: C_5  and  C_11 
ROOT
HETATM    1  O   LIG     1       7.407  23.349  18.226  1.00  0.00    -0.353 OA
HETATM    2  C   LIG     1       7.203  24.117  19.405  1.00  0.00     0.210 C 
ENDROOT
BRANCH   1   3
HETATM    3  C   LIG     1       6.495  22.361  17.978  1.00  0.00     0.101 A 
HETATM    4  C   LIG     1       5.638  22.644  16.913  1.00  0.00     0.040 A 
HETATM    5  C   LIG     1       4.662  21.727  16.514  1.00  0.00     0.014 A 
HETATM    6  C   LIG     1       4.523  20.502  17.174  1.00  0.00    -0.033 A 
HETATM    7  C   LIG     1       5.406  20.200  18.221  1.00  0.00     0.050 A 
HETATM    8  C   LIG     1       6.380  21.125  18.623  1.00  0.00     0.099 A 
BRANCH   6   9
HETATM    9  C   LIG     1       3.523  19.504  16.758  1.00  0.00     0.012 C 
HETATM   10  C   LIG     1       2.695  18.883  17.612  1.00  0.00     0.012 C 
BRANCH  10  11
HETATM   11  C   LIG     1       1.687  17.884  17.226  1.00  0.00    -0.034 A 
HETATM   12  C   LIG     1       0.905  18.124  16.086  1.00  0.00     0.048 A 
HETATM   13  C   LIG     1      -0.042  17.186  15.681  1.00  0.00     0.066 A 
HETATM   14  C   LIG     1      -0.222  16.003  16.385  1.00  0.00     0.036 A 
HETATM   15  C   LIG     1       0.565  15.744  17.506  1.00  0.00     0.004 A 
HETATM   16  C   LIG     1       1.520  16.677  17.919  1.00  0.00     0.011 A 
BRANCH  13  17
HETATM   17  O   LIG     1      -0.825  17.396  14.584  1.00  0.00    -0.361 OA
HETATM   18  H   LIG     1      -1.295  16.572  14.375  1.00  0.00     0.217 HD
ENDBRANCH  13  17
ENDBRANCH  10  11
ENDBRANCH   6   9
BRANCH   8  19
HETATM   19  O   LIG     1       7.229  20.781  19.639  1.00  0.00    -0.358 OA
HETATM   20  H   LIG     1       7.568  19.884  19.486  1.00  0.00     0.217 HD
ENDBRANCH   8  19
ENDBRANCH   1   3
TORSDOF 5
ENDMDL
MODEL 4
REMARK VINA RESULT:      -8.4      1.997      7.942
REMARK  5 active torsions:
REMARK  status: ('A' for Active; 'I' for Inactive)
REMARK    1  A    between atoms: O_1  and  C_9 
REMARK    2  A    between atoms: O_2  and  C_10 
REMARK    3  A    between atoms: O_3  and  C_15 
REMARK    4  A    between atoms: C_4  and  C_7 
REMARK    5  A    between atoms: C_5  and  C_11 
ROOT
HETATM    1  O   LIG     1       0.689  17.163  17.090  1.00  0.00    -0.353 OA
HETATM    2  C   LIG     1       0.150  17.205  15.775  1.00  0.00     0.210 C 
ENDROOT
BRANCH   1   3
HETATM    3  C   LIG     1       1.801  17.926  17.317  1.00  0.00     0.101 A 
HETATM    4  C   LIG     1       2.028  18.891  16.334  1.00  0.00     0.040 A 
HETATM    5  C   LIG     1       3.109  19.770  16.427  1.00  0.00     0.014 A 
HETATM    6  C   LIG     1       3.990  19.704  17.512  1.00  0.00    -0.033 A 
HETATM    7  C   LIG     1       3.744  18.759  18.519  1.00  0.00     0.050 A 
HETATM    8  C   LIG     1       2.661  17.874  18.419  1.00  0.00     0.099 A 
BRANCH   6   9
HETATM    9  C   LIG     1       5.122  20.635  17.652  1.00  0.00     0.012 C 
HETATM   10  C   LIG     1       5.822  20.787  18.786  1.00  0.00     0.012 C 
BRANCH  10  11
HETATM   11  C   LIG     1       6.956  21.708  18.956  1.00  0.00    -0.034 A 
HETATM   12  C   LIG     1       6.711  23.089  18.912  1.00  0.00     0.048 A 
HETATM   13  C   LIG     1       7.760  23.988  19.092  1.00  0.00     0.066 A 
HETATM   14  C   LIG     1       9.053  23.539  19.327  1.00  0.00     0.036 A 
HETATM   15  C   LIG     1       9.303  22.170  19.394  1.00  0.00     0.004 A 
HETATM   16  C   LIG     1       8.258  21.259  19.218  1.00  0.00     0.011 A 
BRANCH  13  17
HETATM   17  O   LIG     1       7.557  25.336  19.044  1.00  0.00    -0.361 OA
HETATM   18  H   LIG     1       7.091  25.551  18.220  1.00  0.00     0.217 HD
ENDBRANCH  13  17
ENDBRANCH  10  11
ENDBRANCH   6   9
BRANCH   8  19
HETATM   19  O   LIG     1       2.451  16.980  19.433  1.00  0.00    -0.358 OA
HETATM   20  H   LIG     1       2.870  16.133  19.208  1.00  0.00     0.217 HD
ENDBRANCH   8  19
ENDBRANCH   1   3
TORSDOF 5
ENDMDL
MODEL 5
REMARK VINA RESULT:      -8.2      1.640      7.759
REMARK  5 active torsions:
REMARK  status: ('A' for Active; 'I' for Inactive)
REMARK    1  A    between atoms: O_1  and  C_9 
REMARK    2  A    between atoms: O_2  and  C_10 
REMARK    3  A    between atoms: O_3  and  C_15 
REMARK    4  A    between atoms: C_4  and  C_7 
REMARK    5  A    between atoms: C_5  and  C_11 
ROOT
HETATM    1  O   LIG     1       0.590  17.065  17.001  1.00  0.00    -0.353 OA
HETATM    2  C   LIG     1       0.315  15.954  17.845  1.00  0.00     0.210 C 
ENDROOT
BRANCH   1   3
HETATM    3  C   LIG     1       1.675  17.829  17.335  1.00  0.00     0.101 A 
HETATM    4  C   LIG     1       2.418  17.312  18.397  1.00  0.00     0.040 A 
HETATM    5  C   LIG     1       3.571  17.960  18.848  1.00  0.00     0.014 A 
HETATM    6  C   LIG     1       4.008  19.142  18.241  1.00  0.00    -0.033 A 
HETATM    7  C   LIG     1       3.283  19.644  17.151  1.00  0.00     0.050 A 
HETATM    8  C   LIG     1       2.122  18.995  16.705  1.00  0.00     0.099 A 
BRANCH   6   9
HETATM    9  C   LIG     1       5.234  19.831  18.676  1.00  0.00     0.012 C 
HETATM   10  C   LIG     1       5.623  21.024  18.200  1.00  0.00     0.012 C 
BRANCH  10  11
HETATM   11  C   LIG     1       6.842  21.736  18.615  1.00  0.00    -0.034 A 
HETATM   12  C   LIG     1       6.927  23.116  18.375  1.00  0.00     0.048 A 
HETATM   13  C   LIG     1       8.058  23.824  18.776  1.00  0.00     0.066 A 
HETATM   14  C   LIG     1       9.107  23.186  19.423  1.00  0.00     0.036 A 
HETATM   15  C   LIG     1       9.023  21.820  19.687  1.00  0.00     0.004 A 
HETATM   16  C   LIG     1       7.892  21.101  19.292  1.00  0.00     0.011 A 
BRANCH  13  17
HETATM   17  O   LIG     1       8.176  25.164  18.548  1.00  0.00    -0.361 OA
HETATM   18  H   LIG     1       8.535  25.297  17.655  1.00  0.00     0.217 HD
ENDBRANCH  13  17
ENDBRANCH  10  11
ENDBRANCH   6   9
BRANCH   8  19
HETATM   19  O   LIG     1       1.456  19.513  15.628  1.00  0.00    -0.358 OA
HETATM   20  H   LIG     1       0.767  18.890  15.346  1.00  0.00     0.217 HD
ENDBRANCH   8  19
ENDBRANCH   1   3
TORSDOF 5
ENDMDL
MODEL 6
REMARK VINA RESULT:      -7.3      8.542     10.890
REMARK  5 active torsions:
REMARK  status: ('A' for Active; 'I' for Inactive)
REMARK    1  A    between atoms: O_1  and  C_9 
REMARK    2  A    between atoms: O_2  and  C_10 
REMARK    3  A    between atoms: O_3  and  C_15 
REMARK    4  A    between atoms: C_4  and  C_7 
REMARK    5  A    between atoms: C_5  and  C_11 
ROOT
HETATM    1  O   LIG     1      -0.200  26.852  22.980  1.00  0.00    -0.353 OA
HETATM    2  C   LIG     1      -0.931  26.377  24.103  1.00  0.00     0.210 C 
ENDROOT
BRANCH   1   3
HETATM    3  C   LIG     1       1.156  26.675  23.016  1.00  0.00     0.101 A 
HETATM    4  C   LIG     1       1.699  26.771  24.299  1.00  0.00     0.040 A 
HETATM    5  C   LIG     1       3.067  26.591  24.513  1.00  0.00     0.014 A 
HETATM    6  C   LIG     1       3.925  26.308  23.445  1.00  0.00    -0.033 A 
HETATM    7  C   LIG     1       3.377  26.175  22.161  1.00  0.00     0.050 A 
HETATM    8  C   LIG     1       2.003  26.363  21.948  1.00  0.00     0.099 A 
BRANCH   6   9
HETATM    9  C   LIG     1       5.367  26.085  23.644  1.00  0.00     0.012 C 
HETATM   10  C   LIG     1       6.212  25.762  22.654  1.00  0.00     0.012 C 
BRANCH  10  11
HETATM   11  C   LIG     1       7.655  25.533  22.822  1.00  0.00    -0.034 A 
HETATM   12  C   LIG     1       8.475  25.554  21.683  1.00  0.00     0.048 A 
HETATM   13  C   LIG     1       9.849  25.364  21.812  1.00  0.00     0.066 A 
HETATM   14  C   LIG     1      10.429  25.163  23.057  1.00  0.00     0.036 A 
HETATM   15  C   LIG     1       9.627  25.163  24.196  1.00  0.00     0.004 A 
HETATM   16  C   LIG     1       8.248  25.356  24.080  1.00  0.00     0.011 A 
BRANCH  13  17
HETATM   17  O   LIG     1      10.672  25.368  20.724  1.00  0.00    -0.361 OA
HETATM   18  H   LIG     1      11.340  24.672  20.836  1.00  0.00     0.217 HD
ENDBRANCH  13  17
ENDBRANCH  10  11
ENDBRANCH   6   9
BRANCH   8  19
HETATM   19  O   LIG     1       1.511  26.208  20.681  1.00  0.00    -0.358 OA
HETATM   20  H   LIG     1       1.641  27.031  20.182  1.00  0.00     0.217 HD
ENDBRANCH   8  19
ENDBRANCH   1   3
TORSDOF 5
ENDMDL
MODEL 7
REMARK VINA RESULT:      -7.3      7.549      9.795
REMARK  5 active torsions:
REMARK  status: ('A' for Active; 'I' for Inactive)
REMARK    1  A    between atoms: O_1  and  C_9 
REMARK    2  A    between atoms: O_2  and  C_10 
REMARK    3  A    between atoms: O_3  and  C_15 
REMARK    4  A    between atoms: C_4  and  C_7 
REMARK    5  A    between atoms: C_5  and  C_11 
ROOT
HETATM    1  O   LIG     1       4.375  28.882  12.597  1.00  0.00    -0.353 OA
HETATM    2  C   LIG     1       3.651  30.046  12.976  1.00  0.00     0.210 C 
ENDROOT
BRANCH   1   3
HETATM    3  C   LIG     1       4.967  28.178  13.610  1.00  0.00     0.101 A 
HETATM    4  C   LIG     1       4.807  28.763  14.867  1.00  0.00     0.040 A 
HETATM    5  C   LIG     1       5.331  28.158  16.012  1.00  0.00     0.014 A 
HETATM    6  C   LIG     1       6.029  26.949  15.923  1.00  0.00    -0.033 A 
HETATM    7  C   LIG     1       6.160  26.341  14.666  1.00  0.00     0.050 A 
HETATM    8  C   LIG     1       5.639  26.954  13.518  1.00  0.00     0.099 A 
BRANCH   6   9
HETATM    9  C   LIG     1       6.569  26.274  17.115  1.00  0.00     0.012 C 
HETATM   10  C   LIG     1       7.832  25.831  17.209  1.00  0.00     0.012 C 
BRANCH  10  11
HETATM   11  C   LIG     1       8.398  25.154  18.386  1.00  0.00    -0.034 A 
HETATM   12  C   LIG     1       9.116  25.918  19.318  1.00  0.00     0.048 A 
HETATM   13  C   LIG     1       9.646  25.310  20.455  1.00  0.00     0.066 A 
HETATM   14  C   LIG     1       9.466  23.954  20.689  1.00  0.00     0.036 A 
HETATM   15  C   LIG     1       8.736  23.191  19.781  1.00  0.00     0.004 A 
HETATM   16  C   LIG     1       8.197  23.790  18.639  1.00  0.00     0.011 A 
BRANCH  13  17
HETATM   17  O   LIG     1      10.358  26.023  21.375  1.00  0.00    -0.361 OA
HETATM   18  H   LIG     1       9.815  26.132  22.173  1.00  0.00     0.217 HD
ENDBRANCH  13  17
ENDBRANCH  10  11
ENDBRANCH   6   9
BRANCH   8  19
HETATM   19  O   LIG     1       5.778  26.317  12.316  1.00  0.00    -0.358 OA
HETATM   20  H   LIG     1       6.527  25.701  12.362  1.00  0.00     0.217 HD
ENDBRANCH   8  19
ENDBRANCH   1   3
TORSDOF 5
ENDMDL
MODEL 8
REMARK VINA RESULT:      -7.3      2.581      8.668
REMARK  5 active torsions:
REMARK  status: ('A' for Active; 'I' for Inactive)
REMARK    1  A    between atoms: O_1  and  C_9 
REMARK    2  A    between atoms: O_2  and  C_10 
REMARK    3  A    between atoms: O_3  and  C_15 
REMARK    4  A    between atoms: C_4  and  C_7 
REMARK    5  A    between atoms: C_5  and  C_11 
ROOT
HETATM    1  O   LIG     1       2.858  18.404  17.223  1.00  0.00    -0.353 OA
HETATM    2  C   LIG     1       1.546  18.867  16.928  1.00  0.00     0.210 C 
ENDROOT
BRANCH   1   3
HETATM    3  C   LIG     1       3.793  19.362  17.503  1.00  0.00     0.101 A 
HETATM    4  C   LIG     1       3.794  20.425  16.597  1.00  0.00     0.040 A 
HETATM    5  C   LIG     1       4.673  21.499  16.753  1.00  0.00     0.014 A 
HETATM    6  C   LIG     1       5.572  21.535  17.824  1.00  0.00    -0.033 A 
HETATM    7  C   LIG     1       5.548  20.487  18.756  1.00  0.00     0.050 A 
HETATM    8  C   LIG     1       4.669  19.406  18.592  1.00  0.00     0.099 A 
BRANCH   6   9
HETATM    9  C   LIG     1       6.490  22.667  18.031  1.00  0.00     0.012 C 
HETATM   10  C   LIG     1       7.363  22.739  19.047  1.00  0.00     0.012 C 
BRANCH  10  11
HETATM   11  C   LIG     1       8.292  23.857  19.279  1.00  0.00    -0.034 A 
HETATM   12  C   LIG     1       8.315  24.912  18.354  1.00  0.00     0.048 A 
HETATM   13  C   LIG     1       9.167  25.996  18.557  1.00  0.00     0.066 A 
HETATM   14  C   LIG     1       9.992  26.057  19.672  1.00  0.00     0.036 A 
HETATM   15  C   LIG     1       9.960  25.025  20.608  1.00  0.00     0.004 A 
HETATM   16  C   LIG     1       9.108  23.934  20.416  1.00  0.00     0.011 A 
BRANCH  13  17
HETATM   17  O   LIG     1       9.222  27.032  17.672  1.00  0.00    -0.361 OA
HETATM   18  H   LIG     1       8.328  27.395  17.562  1.00  0.00     0.217 HD
ENDBRANCH  13  17
ENDBRANCH  10  11
ENDBRANCH   6   9
BRANCH   8  19
HETATM   19  O   LIG     1       4.671  18.414  19.534  1.00  0.00    -0.358 OA
HETATM   20  H   LIG     1       5.587  18.162  19.736  1.00  0.00     0.217 HD
ENDBRANCH   8  19
ENDBRANCH   1   3
TORSDOF 5
ENDMDL
MODEL 9
REMARK VINA RESULT:      -7.1      2.576      8.711
REMARK  5 active torsions:
REMARK  status: ('A' for Active; 'I' for Inactive)
REMARK    1  A    between atoms: O_1  and  C_9 
REMARK    2  A    between atoms: O_2  and  C_10 
REMARK    3  A    between atoms: O_3  and  C_15 
REMARK    4  A    between atoms: C_4  and  C_7 
REMARK    5  A    between atoms: C_5  and  C_11 
ROOT
HETATM    1  O   LIG     1       2.550  18.593  17.746  1.00  0.00    -0.353 OA
HETATM    2  C   LIG     1       2.588  17.435  18.571  1.00  0.00     0.210 C 
ENDROOT
BRANCH   1   3
HETATM    3  C   LIG     1       3.592  19.469  17.879  1.00  0.00     0.101 A 
HETATM    4  C   LIG     1       4.465  19.147  18.920  1.00  0.00     0.040 A 
HETATM    5  C   LIG     1       5.594  19.928  19.176  1.00  0.00     0.014 A 
HETATM    6  C   LIG     1       5.877  21.052  18.392  1.00  0.00    -0.033 A 
HETATM    7  C   LIG     1       5.021  21.356  17.323  1.00  0.00     0.050 A 
HETATM    8  C   LIG     1       3.884  20.575  17.073  1.00  0.00     0.099 A 
BRANCH   6   9
HETATM    9  C   LIG     1       7.074  21.877  18.620  1.00  0.00     0.012 C 
HETATM   10  C   LIG     1       7.029  23.150  19.043  1.00  0.00     0.012 C 
BRANCH  10  11
HETATM   11  C   LIG     1       8.208  23.998  19.280  1.00  0.00    -0.034 A 
HETATM   12  C   LIG     1       8.527  24.349  20.600  1.00  0.00     0.048 A 
HETATM   13  C   LIG     1       9.650  25.133  20.860  1.00  0.00     0.066 A 
HETATM   14  C   LIG     1      10.471  25.567  19.828  1.00  0.00     0.036 A 
HETATM   15  C   LIG     1      10.175  25.206  18.515  1.00  0.00     0.004 A 
HETATM   16  C   LIG     1       9.054  24.418  18.244  1.00  0.00     0.011 A 
BRANCH  13  17
HETATM   17  O   LIG     1       9.981  25.500  22.131  1.00  0.00    -0.361 OA
HETATM   18  H   LIG     1       9.842  24.741  22.721  1.00  0.00     0.217 HD
ENDBRANCH  13  17
ENDBRANCH  10  11
ENDBRANCH   6   9
BRANCH   8  19
HETATM   19  O   LIG     1       3.087  20.901  16.010  1.00  0.00    -0.358 OA
HETATM   20  H   LIG     1       2.365  20.256  15.939  1.00  0.00     0.217 HD
ENDBRANCH   8  19
ENDBRANCH   1   3
TORSDOF 5
ENDMDL
