MODEL 1
REMARK VINA RESULT:      -9.2      0.000      0.000
REMARK  5 active torsions:
REMARK  status: ('A' for Active; 'I' for Inactive)
REMARK    1  A    between atoms: O_1  and  C_10 
REMARK    2  A    between atoms: O_2  and  C_11 
REMARK    3  A    between atoms: O_3  and  C_17 
REMARK    4  A    between atoms: C_4  and  C_6 
REMARK    5  A    between atoms: C_5  and  C_7 
ROOT
HETATM    1  O   LIG     1      -0.702  17.377  14.665  1.00  0.00    -0.361 OA
HETATM    2  H   LIG     1      -0.120  17.299  13.890  1.00  0.00     0.217 HD
ENDROOT
BRANCH   1   3
HETATM    3  C   LIG     1       0.028  17.099  15.784  1.00  0.00     0.069 A 
HETATM    4  C   LIG     1       1.003  18.017  16.167  1.00  0.00     0.048 A 
HETATM    5  C   LIG     1       1.777  17.787  17.313  1.00  0.00    -0.031 A 
HETATM    6  C   LIG     1       1.571  16.607  18.043  1.00  0.00     0.048 A 
HETATM    7  C   LIG     1       0.591  15.700  17.641  1.00  0.00     0.069 A 
HETATM    8  C   LIG     1      -0.188  15.938  16.515  1.00  0.00     0.073 A 
BRANCH   5   9
HETATM    9  C   LIG     1       2.836  18.712  17.744  1.00  0.00     0.012 C 
HETATM   10  C   LIG     1       3.566  19.460  16.900  1.00  0.00     0.012 C 
BRANCH  10  11
HETATM   11  C   LIG     1       4.609  20.405  17.329  1.00  0.00    -0.036 A 
HETATM   12  C   LIG     1       5.241  20.198  18.563  1.00  0.00     0.014 A 
HETATM   13  C   LIG     1       6.219  21.085  19.018  1.00  0.00     0.037 A 
HETATM   14  C   LIG     1       6.560  22.189  18.248  1.00  0.00     0.065 A 
HETATM   15  C   LIG     1       5.934  22.426  17.030  1.00  0.00     0.037 A 
HETATM   16  C   LIG     1       4.955  21.536  16.575  1.00  0.00     0.014 A 
BRANCH  14  17
HETATM   17  O   LIG     1       7.519  23.030  18.730  1.00  0.00    -0.361 OA
HETATM   18  H   LIG     1       7.738  23.677  18.040  1.00  0.00     0.217 HD
ENDBRANCH  14  17
ENDBRANCH  10  11
ENDBRANCH   5   9
BRANCH   7  19
HETATM   19  O   LIG     1       0.362  14.549  18.336  1.00  0.00    -0.361 OA
HETATM   20  H   LIG     1       0.298  13.811  17.707  1.00  0.00     0.217 HD
ENDBRANCH   7  19
ENDBRANCH   1   3
TORSDOF 5
ENDMDL
MODEL 2
REMARK VINA RESULT:      -9.2      0.097      2.007
REMARK  5 active torsions:
REMARK  status: ('A' for Active; 'I' for Inactive)
REMARK    1  A    between atoms: O_1  and  C_10 
REMARK    2  A    between atoms: O_2  and  C_11 
REMARK    3  A    between atoms: O_3  and  C_17 
REMARK    4  A    between atoms: C_4  and  C_6 
REMARK    5  A    between atoms: C_5  and  C_7 
ROOT
HETATM    1  O   LIG     1       0.315  14.640  18.420  1.00  0.00    -0.361 OA
HETATM    2  H   LIG     1       1.032  14.556  19.070  1.00  0.00     0.217 HD
ENDROOT
BRANCH   1   3
HETATM    3  C   LIG     1       0.544  15.754  17.666  1.00  0.00     0.069 A 
HETATM    4  C   LIG     1       1.556  16.619  18.078  1.00  0.00     0.048 A 
HETATM    5  C   LIG     1       1.841  17.775  17.338  1.00  0.00    -0.031 A 
HETATM    6  C   LIG     1       1.072  18.055  16.198  1.00  0.00     0.048 A 
HETATM    7  C   LIG     1       0.064  17.177  15.803  1.00  0.00     0.069 A 
HETATM    8  C   LIG     1      -0.207  16.023  16.528  1.00  0.00     0.073 A 
BRANCH   5   9
HETATM    9  C   LIG     1       2.879  18.733  17.747  1.00  0.00     0.012 C 
HETATM   10  C   LIG     1       3.594  19.476  16.886  1.00  0.00     0.012 C 
BRANCH  10  11
HETATM   11  C   LIG     1       4.616  20.452  17.292  1.00  0.00    -0.036 A 
HETATM   12  C   LIG     1       5.256  20.285  18.527  1.00  0.00     0.014 A 
HETATM   13  C   LIG     1       6.215  21.203  18.962  1.00  0.00     0.037 A 
HETATM   14  C   LIG     1       6.529  22.298  18.168  1.00  0.00     0.065 A 
HETATM   15  C   LIG     1       5.894  22.495  16.947  1.00  0.00     0.037 A 
HETATM   16  C   LIG     1       4.935  21.575  16.513  1.00  0.00     0.014 A 
BRANCH  14  17
HETATM   17  O   LIG     1       7.470  23.170  18.629  1.00  0.00    -0.361 OA
HETATM   18  H   LIG     1       7.593  23.871  17.968  1.00  0.00     0.217 HD
ENDBRANCH  14  17
ENDBRANCH  10  11
ENDBRANCH   5   9
BRANCH   7  19
HETATM   19  O   LIG     1      -0.693  17.418  14.694  1.00  0.00    -0.361 OA
HETATM   20  H   LIG     1      -1.049  18.321  14.750  1.00  0.00     0.217 HD
ENDBRANCH   7  19
ENDBRANCH   1   3
TORSDOF 5
ENDMDL
MODEL 3
REMARK VINA RESULT:      -8.6      1.487      7.534
REMARK  5 active torsions:
REMARK  status: ('A' for Active; 'I' for Inactive)
REMARK    1  A    between atoms: O_1  and  C_10 
REMARK    2  A    between atoms: O_2  and  C_11 
REMARK    3  A    between atoms: O_3  and  C_17 
REMARK    4  A    between atoms: C_4  and  C_6 
REMARK    5  A    between atoms: C_5  and  C_7 
ROOT
HETATM    1  O   LIG     1       6.356  19.550  20.685  1.00  0.00    -0.361 OA
HETATM    2  H   LIG     1       5.673  18.982  21.078  1.00  0.00     0.217 HD
ENDROOT
BRANCH   1   3
HETATM    3  C   LIG     1       5.868  20.071  19.522  1.00  0.00     0.069 A 
HETATM    4  C   LIG     1       4.907  19.333  18.834  1.00  0.00     0.048 A 
HETATM    5  C   LIG     1       4.365  19.824  17.638  1.00  0.00    -0.031 A 
HETATM    6  C   LIG     1       4.828  21.050  17.137  1.00  0.00     0.048 A 
HETATM    7  C   LIG     1       5.791  21.772  17.841  1.00  0.00     0.069 A 
HETATM    8  C   LIG     1       6.316  21.293  19.036  1.00  0.00     0.073 A 
BRANCH   5   9
HETATM    9  C   LIG     1       3.369  19.071  16.861  1.00  0.00     0.012 C 
HETATM   10  C   LIG     1       2.372  18.359  17.411  1.00  0.00     0.012 C 
BRANCH  10  11
HETATM   11  C   LIG     1       1.359  17.625  16.637  1.00  0.00    -0.036 A 
HETATM   12  C   LIG     1       0.888  18.183  15.441  1.00  0.00     0.014 A 
HETATM   13  C   LIG     1      -0.091  17.531  14.688  1.00  0.00     0.037 A 
HETATM   14  C   LIG     1      -0.611  16.324  15.134  1.00  0.00     0.065 A 
HETATM   15  C   LIG     1      -0.173  15.759  16.326  1.00  0.00     0.037 A 
HETATM   16  C   LIG     1       0.808  16.413  17.078  1.00  0.00     0.014 A 
BRANCH  14  17
HETATM   17  O   LIG     1      -1.565  15.720  14.369  1.00  0.00    -0.361 OA
HETATM   18  H   LIG     1      -1.497  16.062  13.463  1.00  0.00     0.217 HD
ENDBRANCH  14  17
ENDBRANCH  10  11
ENDBRANCH   5   9
BRANCH   7  19
HETATM   19  O   LIG     1       6.253  22.971  17.384  1.00  0.00    -0.361 OA
HETATM   20  H   LIG     1       5.631  23.313  16.719  1.00  0.00     0.217 HD
ENDBRANCH   7  19
ENDBRANCH   1   3
TORSDOF 5
ENDMDL
MODEL 4
REMARK VINA RESULT:      -8.5      1.435      7.161
REMARK  5 active torsions:
REMARK  status: ('A' for Active; 'I' for Inactive)
REMARK    1  A    between atoms: O_1  and  C_10 
REMARK    2  A    between atoms: O_2  and  C_11 
REMARK    3  A    between atoms: O_3  and  C_17 
REMARK    4  A    between atoms: C_4  and  C_6 
REMARK    5  A    between atoms: C_5  and  C_7 
ROOT
HETATM    1  O   LIG     1       6.593  22.912  17.623  1.00  0.00    -0.361 OA
HETATM    2  H   LIG     1       6.592  22.916  16.652  1.00  0.00     0.217 HD
ENDROOT
BRANCH   1   3
HETATM    3  C   LIG     1       6.057  21.732  18.051  1.00  0.00     0.069 A 
HETATM    4  C   LIG     1       5.080  21.137  17.255  1.00  0.00     0.048 A 
HETATM    5  C   LIG     1       4.500  19.921  17.641  1.00  0.00    -0.031 A 
HETATM    6  C   LIG     1       4.899  19.335  18.851  1.00  0.00     0.048 A 
HETATM    7  C   LIG     1       5.877  19.946  19.634  1.00  0.00     0.069 A 
HETATM    8  C   LIG     1       6.464  21.144  19.242  1.00  0.00     0.073 A 
BRANCH   5   9
HETATM    9  C   LIG     1       3.447  19.268  16.849  1.00  0.00     0.012 C 
HETATM   10  C   LIG     1       2.517  18.450  17.369  1.00  0.00     0.012 C 
BRANCH  10  11
HETATM   11  C   LIG     1       1.447  17.815  16.584  1.00  0.00    -0.036 A 
HETATM   12  C   LIG     1       0.915  16.598  17.030  1.00  0.00     0.014 A 
HETATM   13  C   LIG     1      -0.085  15.949  16.302  1.00  0.00     0.037 A 
HETATM   14  C   LIG     1      -0.547  16.508  15.118  1.00  0.00     0.065 A 
HETATM   15  C   LIG     1      -0.021  17.705  14.645  1.00  0.00     0.037 A 
HETATM   16  C   LIG     1       0.979  18.354  15.376  1.00  0.00     0.014 A 
BRANCH  14  17
HETATM   17  O   LIG     1      -1.523  15.842  14.438  1.00  0.00    -0.361 OA
HETATM   18  H   LIG     1      -1.617  14.955  14.820  1.00  0.00     0.217 HD
ENDBRANCH  14  17
ENDBRANCH  10  11
ENDBRANCH   5   9
BRANCH   7  19
HETATM   19  O   LIG     1       6.292  19.395  20.810  1.00  0.00    -0.361 OA
HETATM   20  H   LIG     1       6.872  18.639  20.614  1.00  0.00     0.217 HD
ENDBRANCH   7  19
ENDBRANCH   1   3
TORSDOF 5
ENDMDL
MODEL 5
REMARK VINA RESULT:      -8.5      2.023      2.779
REMARK  5 active torsions:
REMARK  status: ('A' for Active; 'I' for Inactive)
REMARK    1  A    between atoms: O_1  and  C_10 
REMARK    2  A    between atoms: O_2  and  C_11 
REMARK    3  A    between atoms: O_3  and  C_17 
REMARK    4  A    between atoms: C_4  and  C_6 
REMARK    5  A    between atoms: C_5  and  C_7 
ROOT
HETATM    1  O   LIG     1      -0.352  13.158  16.155  1.00  0.00    -0.361 OA
HETATM    2  H   LIG     1       0.159  13.401  15.365  1.00  0.00     0.217 HD
ENDROOT
BRANCH   1   3
HETATM    3  C   LIG     1      -0.115  14.085  17.127  1.00  0.00     0.069 A 
HETATM    4  C   LIG     1       0.348  15.338  16.729  1.00  0.00     0.048 A 
HETATM    5  C   LIG     1       0.601  16.332  17.683  1.00  0.00    -0.031 A 
HETATM    6  C   LIG     1       0.408  16.033  19.040  1.00  0.00     0.048 A 
HETATM    7  C   LIG     1      -0.054  14.773  19.418  1.00  0.00     0.069 A 
HETATM    8  C   LIG     1      -0.321  13.793  18.469  1.00  0.00     0.073 A 
BRANCH   5   9
HETATM    9  C   LIG     1       1.116  17.660  17.316  1.00  0.00     0.012 C 
HETATM   10  C   LIG     1       2.363  18.081  17.583  1.00  0.00     0.012 C 
BRANCH  10  11
HETATM   11  C   LIG     1       2.889  19.398  17.195  1.00  0.00    -0.036 A 
HETATM   12  C   LIG     1       4.233  19.693  17.458  1.00  0.00     0.014 A 
HETATM   13  C   LIG     1       4.766  20.941  17.128  1.00  0.00     0.037 A 
HETATM   14  C   LIG     1       3.953  21.904  16.545  1.00  0.00     0.065 A 
HETATM   15  C   LIG     1       2.612  21.642  16.291  1.00  0.00     0.037 A 
HETATM   16  C   LIG     1       2.080  20.391  16.622  1.00  0.00     0.014 A 
BRANCH  14  17
HETATM   17  O   LIG     1       4.512  23.109  16.239  1.00  0.00    -0.361 OA
HETATM   18  H   LIG     1       5.352  22.952  15.777  1.00  0.00     0.217 HD
ENDBRANCH  14  17
ENDBRANCH  10  11
ENDBRANCH   5   9
BRANCH   7  19
HETATM   19  O   LIG     1      -0.260  14.456  20.728  1.00  0.00    -0.361 OA
HETATM   20  H   LIG     1       0.586  14.523  21.203  1.00  0.00     0.217 HD
ENDBRANCH   7  19
ENDBRANCH   1   3
TORSDOF 5
ENDMDL
MODEL 6
REMARK VINA RESULT:      -8.4      2.014      7.274
REMARK  5 active torsions:
REMARK  status: ('A' for Active; 'I' for Inactive)
REMARK    1  A    between atoms: O_1  and  C_10 
REMARK    2  A    between atoms: O_2  and  C_11 
REMARK    3  A    between atoms: O_3  and  C_17 
REMARK    4  A    between atoms: C_4  and  C_6 
REMARK    5  A    between atoms: C_5  and  C_7 
ROOT
HETATM    1  O   LIG     1       2.129  23.652  16.205  1.00  0.00    -0.361 OA
HETATM    2  H   LIG     1       1.371  23.621  16.811  1.00  0.00     0.217 HD
ENDROOT
BRANCH   1   3
HETATM    3  C   LIG     1       2.920  22.566  16.445  1.00  0.00     0.069 A 
HETATM    4  C   LIG     1       2.348  21.303  16.299  1.00  0.00     0.048 A 
HETATM    5  C   LIG     1       3.115  20.152  16.526  1.00  0.00    -0.031 A 
HETATM    6  C   LIG     1       4.451  20.297  16.928  1.00  0.00     0.048 A 
HETATM    7  C   LIG     1       5.004  21.570  17.069  1.00  0.00     0.069 A 
HETATM    8  C   LIG     1       4.247  22.711  16.828  1.00  0.00     0.073 A 
BRANCH   5   9
HETATM    9  C   LIG     1       2.552  18.799  16.411  1.00  0.00     0.012 C 
HETATM   10  C   LIG     1       1.361  18.438  16.916  1.00  0.00     0.012 C 
BRANCH  10  11
HETATM   11  C   LIG     1       0.783  17.092  16.782  1.00  0.00    -0.036 A 
HETATM   12  C   LIG     1       0.991  16.162  17.809  1.00  0.00     0.014 A 
HETATM   13  C   LIG     1       0.481  14.866  17.710  1.00  0.00     0.037 A 
HETATM   14  C   LIG     1      -0.230  14.490  16.578  1.00  0.00     0.065 A 
HETATM   15  C   LIG     1      -0.434  15.389  15.537  1.00  0.00     0.037 A 
HETATM   16  C   LIG     1       0.077  16.687  15.639  1.00  0.00     0.014 A 
BRANCH  14  17
HETATM   17  O   LIG     1      -0.711  13.216  16.521  1.00  0.00    -0.361 OA
HETATM   18  H   LIG     1      -1.681  13.252  16.492  1.00  0.00     0.217 HD
ENDBRANCH  14  17
ENDBRANCH  10  11
ENDBRANCH   5   9
BRANCH   7  19
HETATM   19  O   LIG     1       6.302  21.742  17.449  1.00  0.00    -0.361 OA
HETATM   20  H   LIG     1       6.331  22.380  18.182  1.00  0.00     0.217 HD
ENDBRANCH   7  19
ENDBRANCH   1   3
TORSDOF 5
ENDMDL
MODEL 7
REMARK VINA RESULT:      -8.3      1.224      7.279
REMARK  5 active torsions:
REMARK  status: ('A' for Active; 'I' for Inactive)
REMARK    1  A    between atoms: O_1  and  C_10 
REMARK    2  A    between atoms: O_2  and  C_11 
REMARK    3  A    between atoms: O_3  and  C_17 
REMARK    4  A    between atoms: C_4  and  C_6 
REMARK    5  A    between atoms: C_5  and  C_7 
ROOT
HETATM    1  O   LIG     1       5.204  24.166  16.160  1.00  0.00    -0.361 OA
HETATM    2  H   LIG     1       5.872  24.834  16.388  1.00  0.00     0.217 HD
ENDROOT
BRANCH   1   3
HETATM    3  C   LIG     1       5.456  23.039  16.887  1.00  0.00     0.069 A 
HETATM    4  C   LIG     1       4.638  21.931  16.670  1.00  0.00     0.048 A 
HETATM    5  C   LIG     1       4.855  20.744  17.383  1.00  0.00    -0.031 A 
HETATM    6  C   LIG     1       5.887  20.703  18.333  1.00  0.00     0.048 A 
HETATM    7  C   LIG     1       6.693  21.822  18.535  1.00  0.00     0.069 A 
HETATM    8  C   LIG     1       6.488  22.994  17.816  1.00  0.00     0.073 A 
BRANCH   5   9
HETATM    9  C   LIG     1       4.004  19.557  17.209  1.00  0.00     0.012 C 
HETATM   10  C   LIG     1       2.661  19.597  17.178  1.00  0.00     0.012 C 
BRANCH  10  11
HETATM   11  C   LIG     1       1.807  18.416  16.980  1.00  0.00    -0.036 A 
HETATM   12  C   LIG     1       1.885  17.364  17.902  1.00  0.00     0.014 A 
HETATM   13  C   LIG     1       1.109  16.214  17.738  1.00  0.00     0.037 A 
HETATM   14  C   LIG     1       0.261  16.107  16.643  1.00  0.00     0.065 A 
HETATM   15  C   LIG     1       0.181  17.129  15.704  1.00  0.00     0.037 A 
HETATM   16  C   LIG     1       0.958  18.280  15.872  1.00  0.00     0.014 A 
BRANCH  14  17
HETATM   17  O   LIG     1      -0.478  14.968  16.520  1.00  0.00    -0.361 OA
HETATM   18  H   LIG     1      -1.386  15.156  16.810  1.00  0.00     0.217 HD
ENDBRANCH  14  17
ENDBRANCH  10  11
ENDBRANCH   5   9
BRANCH   7  19
HETATM   19  O   LIG     1       7.709  21.810  19.445  1.00  0.00    -0.361 OA
HETATM   20  H   LIG     1       7.606  21.031  20.019  1.00  0.00     0.217 HD
ENDBRANCH   7  19
ENDBRANCH   1   3
TORSDOF 5
ENDMDL
MODEL 8
REMARK VINA RESULT:      -8.2      1.221      7.549
REMARK  5 active torsions:
REMARK  status: ('A' for Active; 'I' for Inactive)
REMARK    1  A    between atoms: O_1  and  C_10 
REMARK    2  A    between atoms: O_2  and  C_11 
REMARK    3  A    between atoms: O_3  and  C_17 
REMARK    4  A    between atoms: C_4  and  C_6 
REMARK    5  A    between atoms: C_5  and  C_7 
ROOT
HETATM    1  O   LIG     1       8.003  21.934  19.309  1.00  0.00    -0.361 OA
HETATM    2  H   LIG     1       8.727  22.435  18.899  1.00  0.00     0.217 HD
ENDROOT
BRANCH   1   3
HETATM    3  C   LIG     1       6.923  21.971  18.475  1.00  0.00     0.069 A 
HETATM    4  C   LIG     1       6.062  20.876  18.480  1.00  0.00     0.048 A 
HETATM    5  C   LIG     1       4.933  20.863  17.650  1.00  0.00    -0.031 A 
HETATM    6  C   LIG     1       4.706  21.954  16.798  1.00  0.00     0.048 A 
HETATM    7  C   LIG     1       5.581  23.040  16.808  1.00  0.00     0.069 A 
HETATM    8  C   LIG     1       6.691  23.060  17.644  1.00  0.00     0.073 A 
BRANCH   5   9
HETATM    9  C   LIG     1       4.009  19.720  17.599  1.00  0.00     0.012 C 
HETATM   10  C   LIG     1       2.875  19.704  16.879  1.00  0.00     0.012 C 
BRANCH  10  11
HETATM   11  C   LIG     1       1.962  18.554  16.807  1.00  0.00    -0.036 A 
HETATM   12  C   LIG     1       2.065  17.547  17.776  1.00  0.00     0.014 A 
HETATM   13  C   LIG     1       1.233  16.426  17.729  1.00  0.00     0.037 A 
HETATM   14  C   LIG     1       0.303  16.301  16.707  1.00  0.00     0.065 A 
HETATM   15  C   LIG     1       0.193  17.278  15.723  1.00  0.00     0.037 A 
HETATM   16  C   LIG     1       1.027  18.400  15.772  1.00  0.00     0.014 A 
BRANCH  14  17
HETATM   17  O   LIG     1      -0.490  15.192  16.698  1.00  0.00    -0.361 OA
HETATM   18  H   LIG     1      -0.869  15.076  17.585  1.00  0.00     0.217 HD
ENDBRANCH  14  17
ENDBRANCH  10  11
ENDBRANCH   5   9
BRANCH   7  19
HETATM   19  O   LIG     1       5.381  24.119  15.998  1.00  0.00    -0.361 OA
HETATM   20  H   LIG     1       4.454  24.123  15.705  1.00  0.00     0.217 HD
ENDBRANCH   7  19
ENDBRANCH   1   3
TORSDOF 5
ENDMDL
MODEL 9
REMARK VINA RESULT:      -8.1      1.995      3.302
REMARK  5 active torsions:
REMARK  status: ('A' for Active; 'I' for Inactive)
REMARK    1  A    between atoms: O_1  and  C_10 
REMARK    2  A    between atoms: O_2  and  C_11 
REMARK    3  A    between atoms: O_3  and  C_17 
REMARK    4  A    between atoms: C_4  and  C_6 
REMARK    5  A    between atoms: C_5  and  C_7 
ROOT
HETATM    1  O   LIG     1       1.297  19.137  15.230  1.00  0.00    -0.361 OA
HETATM    2  H   LIG     1       1.635  18.553  14.531  1.00  0.00     0.217 HD
ENDROOT
BRANCH   1   3
HETATM    3  C   LIG     1       2.113  19.028  16.318  1.00  0.00     0.069 A 
HETATM    4  C   LIG     1       3.178  19.921  16.421  1.00  0.00     0.048 A 
HETATM    5  C   LIG     1       4.044  19.861  17.521  1.00  0.00    -0.031 A 
HETATM    6  C   LIG     1       3.836  18.872  18.493  1.00  0.00     0.048 A 
HETATM    7  C   LIG     1       2.765  17.988  18.371  1.00  0.00     0.069 A 
HETATM    8  C   LIG     1       1.896  18.059  17.289  1.00  0.00     0.073 A 
BRANCH   5   9
HETATM    9  C   LIG     1       5.198  20.763  17.662  1.00  0.00     0.012 C 
HETATM   10  C   LIG     1       5.856  20.963  18.815  1.00  0.00     0.012 C 
BRANCH  10  11
HETATM   11  C   LIG     1       7.025  21.844  18.954  1.00  0.00    -0.036 A 
HETATM   12  C   LIG     1       6.837  23.231  18.882  1.00  0.00     0.014 A 
HETATM   13  C   LIG     1       7.923  24.103  18.985  1.00  0.00     0.037 A 
HETATM   14  C   LIG     1       9.203  23.591  19.148  1.00  0.00     0.065 A 
HETATM   15  C   LIG     1       9.418  22.219  19.204  1.00  0.00     0.037 A 
HETATM   16  C   LIG     1       8.328  21.348  19.102  1.00  0.00     0.014 A 
BRANCH  14  17
HETATM   17  O   LIG     1      10.236  24.476  19.244  1.00  0.00    -0.361 OA
HETATM   18  H   LIG     1       9.959  25.319  18.847  1.00  0.00     0.217 HD
ENDBRANCH  14  17
ENDBRANCH  10  11
ENDBRANCH   5   9
BRANCH   7  19
HETATM   19  O   LIG     1       2.532  17.022  19.306  1.00  0.00    -0.361 OA
HETATM   20  H   LIG     1       1.677  17.201  19.733  1.00  0.00     0.217 HD
ENDBRANCH   7  19
ENDBRANCH   1   3
TORSDOF 5
ENDMDL
